*  **********************************************
*  *             TSMC SPICE MODEL               *
*  **********************************************
*
*    PROCESS :  90nm LOGIC SALICIDE (1P9M, 1.0V/1.8V/3.3V) (CLN90G)
*    MODEL   :  BSIM4/BSIM3 ( V4.5/V3.2.4 )
*    DOC. NO.:  T-N90-CL-SP-005
*    VERSION :  V1.5
*    DATE    :  July 30th, 2006
*    HSPICE VERSION : HSPICE  Y-2006.03
*
*
******************************************************************************
*                                                                            *
*       THIS MODEL LIB CONTAINS :                                            *
*                                                                            *
*       1.LIB TT                                                             *
*             SS                                                             *
*             FF                                                             *
*             SF                                                             *
*             FS                                                             *
*   ( 1.0V Standard-Vt devices with different geometric and corner models)   *
*                                                                            *
*       2.LIB TT_hvt                                                         *
*             SS_hvt                                                         *
*             FF_hvt                                                         *
*             SF_hvt                                                         *
*             FS_hvt                                                         *
*   ( 1.0V High-Vt devices with different geometric and corner models)       *
*                                                                            *
*       3.LIB TT_lvt                                                         *
*             SS_lvt                                                         *
*             FF_lvt                                                         *
*             SF_lvt                                                         *
*             FS_lvt                                                         *
*   ( 1.0V Low-Vt devices with different geometric and corner models)        *
*                                                                            *
*       4.LIB TT_18                                                          *
*             SS_18                                                          *
*             FF_18                                                          *
*             SF_18                                                          *
*             FS_18                                                          *
*   ( 1.8V devices with different geometric and corner models)               *
*                                                                            *
*       5.LIB TT_33                                                          *
*             SS_33                                                          *
*             FF_33                                                          *
*             SF_33                                                          *
*             FS_33                                                          *
*   ( 3.3V devices with different geometric and corner models)               *
*                                                                            *
*       6.LIB TT_na                                                          *
*             SS_na                                                          *
*             FF_na                                                          *
*             SF_na                                                          *
*             FS_na                                                          *
*   ( 1.0V Native NMOS devices with different geometric and corner models)   *
*                                                                            *
*       7.LIB TT_na18                                                        *
*             SS_na18                                                        *
*             FF_na18                                                        *
*             SF_na18                                                        *
*             FS_na18                                                        *
*   ( 1.8V Native NMOS devices with different geometric and corner models)   *
*                                                                            *
*       8.LIB TT_na33                                                        *
*             SS_na33                                                        *
*             FF_na33                                                        *
*             SF_na33                                                        *
*             FS_na33                                                        *
*   ( 3.3V Native NMOS devices with different geometric and corner models)   *
*                                                                            *
*       9.LIB TT_BIP                                                         *
*             SS_BIP                                                         *
*             FF_BIP                                                         *
*        ( 1.0V P+/NW/PSUB 10x10, 5x5, and 2x2 vertical PNP bipolar )        *
*                                                                            *
*      10.LIB TT_BIP_NPN                                                     *
*             SS_BIP_NPN                                                     *
*             FF_BIP_NPN                                                     *
*        ( 1.0V N+/PW/DNW 10x10, 5x5, and 2x2 vertical NPN bipolar )         *
*                                                                            *
*      11.LIB TT_DIO                                                         *
*             SS_DIO                                                         *
*             FF_DIO                                                         *
*        ( 1.0V Standard-Vt P+/NW, N+/PW, and NW/PSUB diode )                *
*                                                                            *
*      12.LIB TT_DIO_hvt                                                     *
*             SS_DIO_hvt                                                     *
*             FF_DIO_hvt                                                     *
*        ( 1.0V High-Vt P+/NW, and N+/PW diode )                             *
*                                                                            *
*      13.LIB TT_DIO_lvt                                                     *
*             SS_DIO_lvt                                                     *
*             FF_DIO_lvt                                                     *
*        ( 1.0V Low-Vt P+/NW, and N+/PW diode )                              *
*                                                                            *
*      14.LIB TT_DIO_18                                                      *
*             SS_DIO_18                                                      *
*             FF_DIO_18                                                      *
*        ( 1.8V P+/NW, and N+/PW diode )                                     *
*                                                                            *
*      15.LIB TT_DIO_33                                                      *
*             SS_DIO_33                                                      *
*             FF_DIO_33                                                      *
*        ( 3.3V P+/NW, and N+/PW diode )                                     *
*                                                                            *
*      16.LIB TT_DIO_na                                                      *
*             SS_DIO_na                                                      *
*             FF_DIO_na                                                      *
*        ( 1.0V Native NMOS N+/PSUB diode )                                  *
*                                                                            *
*      17.LIB TT_DIO_na18                                                    *
*             SS_DIO_na18                                                    *
*             FF_DIO_na18                                                    *
*        ( 1.8V Native NMOS N+/PSUB diode )                                  *
*                                                                            *
*      18.LIB TT_DIO_na33                                                    *
*             SS_DIO_na33                                                    *
*             FF_DIO_na33                                                    *
*        ( 3.3V Native NMOS N+/PSUB diode )                                  *
*                                                                            *
*      19.LIB TT_DIO_dnw                                                     *
*             SS_DIO_dnw                                                     *
*             FF_DIO_dnw                                                     *
*        ( PW/DNW and DNW/PSUB diode )                                       *
*                                                                            *
*      20.LIB TT_DIO_esd                                                     *
*             SS_DIO_esd                                                     *
*             FF_DIO_esd                                                     *
*        ( ESD diode )                                                       *
*                                                                            *
*      21.LIB MOS_CAP                                                        *
*        ( 1.0V Standard-Vt NMOS in N-Well varactor )                        *
*                                                                            *
*      22.LIB MOS_CAP_33                                                     *
*        ( 3.3V IO NMOS in N-Well varactor )                                 *
*                                                                            *
*      23.LIB RES                                                            *
*        ( resistance )                                                      *
*                                                                            *
******************************************************************************
*****************************************************************************************
*                                                                                       *
* 1) To use these models directly by programming in this style:                         *
*                                                                                       *
*     .lib 'lib_path/lib_name' model_name                                               *
*                                                                                       *
*    EX: .lib '/home/user/tsmc/LOGIC/cln90g_lk.l' TT                                    *
*        for typical 1.0V Standard Vt N,PMOS                                            *
*    note:                                                                              *
*      corner_name                                                                      *
*       TT : typical model for 1.0V standard-Vt devices                                 *
*       SS : Slow NMOS Slow PMOS model for 1.0V standard-Vt devices                     *
*       FF : Fast NMOS Fast PMOS model for 1.0V standard-Vt devices                     *
*       SF : Slow NMOS Fast PMOS model for 1.0V standard-Vt devices                     *
*       FS : Fast NMOS Slow PMOS model for 1.0V standard-Vt devices                     *
*      corner_name                                                                      *
*       TT_hvt : typical model for 1.0V high-Vt devices                                 *
*       SS_hvt : Slow NMOS Slow PMOS model for 1.0V high-Vt devices                     *
*       FF_hvt : Fast NMOS Fast PMOS model for 1.0V high-Vt devices                     *
*       SF_hvt : Slow NMOS Fast PMOS model for 1.0V high-Vt devices                     *
*       FS_hvt : Fast NMOS Slow PMOS model for 1.0V high-Vt devices                     *
*      corner_name                                                                      *
*       TT_lvt : typical model for 1.0V low-Vt devices                                  *
*       SS_lvt : Slow NMOS Slow PMOS model for 1.0V low-Vt devices                      *
*       FF_lvt : Fast NMOS Fast PMOS model for 1.0V low-Vt devices                      *
*       SF_lvt : Slow NMOS Fast PMOS model for 1.0V low-Vt devices                      *
*       FS_lvt : Fast NMOS Slow PMOS model for 1.0V low-Vt devices                      *
*      corner_name                                                                      *
*       TT_18 : typical model for 1.8V devices                                          *
*       SS_18 : Slow NMOS Slow PMOS model for 1.8V devices                              *
*       FF_18 : Fast NMOS Fast PMOS model for 1.8V devices                              *
*       SF_18 : Slow NMOS Fast PMOS model for 1.8V devices                              *
*       FS_18 : Fast NMOS Slow PMOS model for 1.8V devices                              *
*      corner_name                                                                      *
*       TT_33 : typical model for 3.3V devices                                          *
*       SS_33 : Slow NMOS Slow PMOS model for 3.3V devices                              *
*       FF_33 : Fast NMOS Fast PMOS model for 3.3V devices                              *
*       SF_33 : Slow NMOS Fast PMOS model for 3.3V devices                              *
*       FS_33 : Fast NMOS Slow PMOS model for 3.3V devices                              *
*      corner_name                                                                      *
*       TT_na : typical model for 1.0V Native NMOS devices                              *
*       SS_na : Slow NMOS Slow PMOS model for 1.0V Native NMOS devices                  *
*       FF_na : Fast NMOS Fast PMOS model for 1.0V Native NMOS devices                  *
*       SF_na : Slow NMOS Fast PMOS model for 1.0V Native NMOS devices                  *
*       FS_na : Fast NMOS Slow PMOS model for 1.0V Native NMOS devices                  *
*      corner_name                                                                      *
*       TT_na18 : typical model for 1.8V Native NMOS devices                            *
*       SS_na18 : Slow NMOS Slow PMOS model for 1.8V Native NMOS devices                *
*       FF_na18 : Fast NMOS Fast PMOS model for 1.8V Native NMOS devices                *
*       SF_na18 : Slow NMOS Fast PMOS model for 1.8V Native NMOS devices                *
*       FS_na18 : Fast NMOS Slow PMOS model for 1.8V Native NMOS devices                *
*      corner_name                                                                      *
*       TT_na33 : typical model for 3.3V Native NMOS devices                            *
*       SS_na33 : Slow NMOS Slow PMOS model for 3.3V Native NMOS devices                *
*       FF_na33 : Fast NMOS Fast PMOS model for 3.3V Native NMOS devices                *
*       SF_na33 : Slow NMOS Fast PMOS model for 3.3V Native NMOS devices                *
*       FS_na33 : Fast NMOS Slow PMOS model for 3.3V Native NMOS devices                *
*                                                                                       *
* 2) HDIF depends on your layout poly spacer to contact center distance.                *
*    The value listed here is TSMC minimum-rule value. You can change it                *
*    according to your layout.                                                          *
*                                                                                       *
*****************************************************************************************
*
*
************************    FLAG FOR CONTACT-POLY CAPACITANCE    ******************************
*
* NOTE: 
*  1. The default value of ccoflag is 0, which means that the model will exclude contact-to-poly
*     capacitance.  LPE tools should extract this capacitance during post-layout simulation.
*  2. Users could set ccoflag to 1 for pre-layout simulation where contact-to-poly capacitance
*     with maximum contact density is required.
*  3. Recommend customer to follow the WPE design rule, If customer need to run the WPE simulation, 
*     users could set wpeflag to 1 for WPE simulation.
***********************************************************************************************
*
*
*
*


.LIB CCO_pre_simu
.param ccoflag=0
.ENDL CCO_pre_simu

.LIB CCO_pre_simu_hvt
.param ccoflag_hvt=0
.ENDL CCO_pre_simu_hvt

.LIB CCO_pre_simu_lvt
.param ccoflag_lvt=0
.ENDL CCO_pre_simu_lvt

.LIB CCO_pre_simu_18
.param ccoflag_18=0
.ENDL CCO_pre_simu_18

.LIB CCO_pre_simu_33
.param ccoflag_33=0
.ENDL CCO_pre_simu_33

.LIB CCO_pre_simu_na
.param ccoflag_na=0
.ENDL CCO_pre_simu_na

.LIB CCO_pre_simu_na18
.param ccoflag_na18=0
.ENDL CCO_pre_simu_na18

.LIB CCO_pre_simu_na33
.param ccoflag_na33=0
.ENDL CCO_pre_simu_na33

.LIB WPE_pre_simu
.param wpeflag=0
.ENDL WPE_pre_simu

.LIB WPE_pre_simu_hvt
.param wpeflag_hvt=0
.ENDL WPE_pre_simu_hvt

.LIB WPE_pre_simu_lvt
.param wpeflag_lvt=0
.ENDL WPE_pre_simu_lvt

.LIB WPE_pre_simu_18
.param wpeflag_18=0
.ENDL WPE_pre_simu_18

.LIB WPE_pre_simu_33
.param wpeflag_33=0
.ENDL WPE_pre_simu_33

***************************************************************
*                                                             *
*               1.0V STANDARD VT DEVICE LIB                   *
*                                                             *
***************************************************************
*
******************************    LIBRARY OF TYPICAL CASE    ******************************
.LIB TT
.lib 'cln90g_lk.l' CCO_pre_simu
.lib 'cln90g_lk.l' WPE_pre_simu
.param
+toxn           = 2.33E-09      cjn            = 9.8000E-04    cjswn          = 4.0000E-11    
+cjswgn         = 3.7000E-10    cgon           = 1.209E-10     cgln           = 6.5143E-11    
+dvthn          = 0             dpvthn         = 0             dxln           = 0             
+dxwn           = -0.5e-8       dlvthn         = 0             dwvthn         = 0             
+dk2n           = 0             dpvoffn        = 0
+dpvsatn        = 0             dpeta0n        = 0
+dxlp           = 0             dxwp           = -0.5e-8
+toxp           = 2.50E-09      cjp            = 1.1400E-03    cjswp          = 6.0000E-11    
+cjswgp         = 3.6000E-10    cgop           = 2.568E-11     cglp           = 1.8957e-10    
+dvthp          = 0             dlvthp         = 0             dwvthp         = 0             
+dpvthp         = 0                 
+dlcdscdp       = 0             drdswp         = 0             ntoxn          = 1
+ntoxp          = 1             dlvoffp        = 0             dk2p           = 0
+cfn            = '1.38E-10+3.1E-11*ccoflag'
+cfp            = '1.38E-10+3.1E-11*ccoflag'
.lib 'cln90g_lk.l' MOS
.ENDL TT

******************************  LIBRARY OF SNSP CORNER CASE  ******************************
.LIB SS
.lib 'cln90g_lk.l' CCO_pre_simu
.lib 'cln90g_lk.l' WPE_pre_simu
.param
+toxn           = 2.39E-09      cjn            = 1.0486E-03    cjswn          = 4.2800E-11    
+cjswgn         = 3.9590E-10    cgon           = 1.1244E-10    cgln           = 6.058E-11     
+dvthn          = 3.500E-02     dpvthn         = 1.4E-016      dxln           = 5.000E-09     
+dxwn           = '-8.000E-09-0.5e-8'    dlvthn         = 1.3E-09       dwvthn         = 3.0E-09       
+dk2n           = 8e-3          dpvoffn        = 0
+dpvsatn        = 0             dpeta0n        = 0
+dxlp           = 5.000E-09     dxwp           = '-8.000E-09-0.5e-8'    
+toxp           = 2.560E-09     cjp            = 1.2198E-03    cjswp          = 6.4200E-11    
+cjswgp         = 3.8520E-10    cgop           = 2.3882E-11    cglp           = 1.7630E-10    
+dvthp          = -3.000E-02    dlvthp         = -1.3e-09      dwvthp         = -1.0e-9       
+dpvthp         = -1.4e-16         
+dlcdscdp       = 0             drdswp         = -50           ntoxn          = -0.8       
+ntoxp          = -3.0          dlvoffp        = 0             dk2p           = 4.5e-3
+cfn            = '1.283E-10+3.1E-11*ccoflag'
+cfp            = '1.283E-10+3.1E-11*ccoflag'
.lib 'cln90g_lk.l' MOS
.ENDL SS

******************************  LIBRARY OF FNFP CORNER CASE  ******************************
.LIB FF
.lib 'cln90g_lk.l' CCO_pre_simu
.lib 'cln90g_lk.l' WPE_pre_simu
.param
+toxn           = 2.27E-09      cjn            = 9.1140E-04    cjswn          = 3.7200E-11    
+cjswgn         = 3.4410E-10    cgon           = 1.2936E-10    cgln           = 6.970E-11     
+dvthn          = -3.500E-02    dpvthn         = -1.3E-016     dxln           = -5.000E-09    
+dxwn           = '8.000E-09-0.5e-8'           dlvthn         = -1.7E-09      dwvthn         = -3.0E-09      
+dk2n           = -8e-3         dpvoffn        = -4e-17
+dpvsatn        = -5e-11        dpeta0n        = 3.0e-16
+dxlp           = -5.000E-09    dxwp           = '8.000E-09-0.5e-8'     
+toxp           =  2.44E-09     cjp            = 1.0602E-03    cjswp          = 5.5800E-11    
+cjswgp         = 3.3480E-10    cgop           = 2.7478E-11    cglp           = 2.0284E-10    
+dvthp          = 3.000E-02     dlvthp         = 16.4e-10      dwvthp         = 1.0e-9        
+dpvthp         = 0.7e-16           
+dlcdscdp       = 0             drdswp         = 50            ntoxn          = 2.7        
+ntoxp          = 5.0           dlvoffp        = -5.5e-10        dk2p           = -4.5e-3
+cfn            = '1.477E-10+3.1E-11*ccoflag'
+cfp            = '1.477E-10+3.1E-11*ccoflag'
.lib 'cln90g_lk.l' MOS
.ENDL FF

******************************  LIBRARY OF SNFP CORNER CASE  ******************************
.LIB SF
.lib 'cln90g_lk.l' CCO_pre_simu
.lib 'cln90g_lk.l' WPE_pre_simu
.param
+A4NP=0 A1N=0.8 A1P=-0.8 A2N=0 A3N=-1 A2P=0 A3P=1 
+toxn = '2.33E-09 + 6.0000e-11*A4NP'     cjn = '9.8000E-04 * (1+0.070*A1N)'      cjswn = '4.0000E-11 * (1+0.070*A1N)'    
+cjswgn = '3.7000E-10 * (1+0.070*A1N)'   cgon = '1.209E-10 * (1-0.070*A4NP)'     cgln = '6.5143E-11 * (1-0.070*A4NP)'    
+dvthn = '0.035*A1N'                     dpvthn = '1.3e-16*A1N'                  dxln = '5e-09*A2N'                      
+dxwn = '0.8e-08*A3N-0.5e-08'                    dlvthn = '1.7e-09*A1N'                  dwvthn = '3e-09*A1N'                    
+dk2n = '0.008*A1N'                      dpvoffn = '4e-17*A1N'                   dpvsatn = '5e-11*A1N'                   
+dpeta0n = '-3e-16*A1N'                  dxlp = '5e-09*A2P'                      dxwp = '0.8e-08*A3P-0.5e-08'                    
+toxp = '2.50E-09 + 6.0000e-11*A4NP'     cjp = '1.1400E-03 * (1+0.070*A1P)'      cjswp = '6.0000E-11 * (1+0.070*A1P)'    
+cjswgp = '3.6000E-10 * (1+0.070*A1P)'   cgop = '2.568E-11 * (1-0.070*A4NP)'     cglp = '1.8957e-10 * (1-0.070*A4NP)'    
+dvthp = '-0.03*A1P'                     dlvthp = '-1.64e-09*A1P'                dwvthp = '-1e-09*A1P'                   
+dpvthp = '-7e-17*A1P'                   dlcdscdp = 0                            drdswp = '-50*A1P'                      
+ntoxn = '1-1.7*A4NP'                    ntoxp =  '1-4*A4NP'                     dlvoffp = '5.5e-10*A1P'                                                      
+dk2p = '0.0045*A1P'                     
+cfn = '1.38E-10*(1-0.070*A4NP)+3.1E-11*ccoflag'
+cfp = '1.38E-10*(1-0.070*A4NP)+3.1E-11*ccoflag'
.lib 'cln90g_lk.l' MOS
.ENDL SF

******************************  LIBRARY OF FNSP CORNER CASE  ******************************
.LIB FS
.lib 'cln90g_lk.l' CCO_pre_simu
.lib 'cln90g_lk.l' WPE_pre_simu
.param
+A4NP=0 A1N=-0.8 A1P=0.8 A2N=0 A3N=1 A2P=0 A3P=-1 
+toxn = '2.33E-09 + 6.0000e-11*A4NP'     cjn = '9.8000E-04 * (1+0.070*A1N)'      cjswn = '4.0000E-11 * (1+0.070*A1N)'    
+cjswgn = '3.7000E-10 * (1+0.070*A1N)'   cgon = '1.209E-10 * (1-0.070*A4NP)'     cgln = '6.5143E-11 * (1-0.070*A4NP)'    
+dvthn = '0.035*A1N'                     dpvthn = '1.3e-16*A1N'                  dxln = '5e-09*A2N'                      
+dxwn = '0.8e-08*A3N-0.5e-08'                    dlvthn = '1.7e-09*A1N'                  dwvthn = '3e-09*A1N'                    
+dk2n = '0.008*A1N'                      dpvoffn = '4e-17*A1N'                   dpvsatn = '5e-11*A1N'                   
+dpeta0n = '-3e-16*A1N'                  dxlp = '5e-09*A2P'                      dxwp = '0.8e-08*A3P-0.5e-08'                    
+toxp = '2.50E-09 + 6.0000e-11*A4NP'     cjp = '1.1400E-03 * (1+0.070*A1P)'      cjswp = '6.0000E-11 * (1+0.070*A1P)'    
+cjswgp = '3.6000E-10 * (1+0.070*A1P)'   cgop = '2.568E-11 * (1-0.070*A4NP)'     cglp = '1.8957e-10 * (1-0.070*A4NP)'    
+dvthp = '-0.03*A1P'                     dlvthp = '-1.64e-09*A1P'                dwvthp = '-1e-09*A1P'                   
+dpvthp = '-7e-17*A1P'                   dlcdscdp = 0                            drdswp = '-50*A1P'                      
+ntoxn = '1-1.7*A4NP'                    ntoxp =  '1-4*A4NP'                     dlvoffp = '5.5e-10*A1P'                                                      
+dk2p = '0.0045*A1P'                     
+cfn = '1.38E-10*(1-0.070*A4NP)+3.1E-11*ccoflag'
+cfp = '1.38E-10*(1-0.070*A4NP)+3.1E-11*ccoflag'
.lib 'cln90g_lk.l' MOS
.ENDL FS

***************************************************************
*                                                             *
*                 1.0V HIGH VT DEVICE LIB                     *
*                                                             *
***************************************************************

******************************    LIBRARY OF TYPICAL CASE    ******************************
.LIB TT_hvt
.lib 'cln90g_lk.l' CCO_pre_simu_hvt
.lib 'cln90g_lk.l' WPE_pre_simu_hvt
.param
+toxn_hvt       = 2.33E-09      dxln_hvt       = 0             dxwn_hvt        = -0.5e-8             
+dvthn_hvt      = 0             dlvthn_hvt     = 0             dwvthn_hvt     = 0             
+dpvthn_hvt     = 0             dlcdscdn_hvt   = 0             deta0n_hvt     = 0             
+cjn_hvt        = 1.09E-03      cjswn_hvt      = 2.0E-11       cjswgn_hvt     = 4.2E-10       
+cgon_hvt       = 1.122e-10     ntoxn_hvt      = 1             dlcitn_hvt     = 0
+dlvoffn_hvt    = 0             dpvsatn_hvt    = 0
+cgln_hvt       = 5.953E-11     dk2n_hvt       = 0             dpvoffn_hvt    = 0
+toxp_hvt       = 2.50E-09      dxlp_hvt       = 0             dxwp_hvt        = -0.5e-8
+dvthp_hvt      = 0             dlvthp_hvt     = 0             dwvthp_hvt     = 0             
+dpvthp_hvt     = 0             cjp_hvt        = 1.17E-03      cjswp_hvt      = 6.00E-11      
+cjswgp_hvt     = 4.10E-10      cgop_hvt       = 1.96e-11     
+cglp_hvt       = 1.77E-10      dk2p_hvt       = 0             dpvoffp_hvt    = 0
+drdswp_hvt     = 0             ntoxp_hvt      = 1             dpvsatp_hvt    = 0
+cfn_hvt        = '1.38E-10+3.1E-11*ccoflag_hvt'
+cfp_hvt        = '1.38E-10+3.1E-11*ccoflag_hvt'
.lib 'cln90g_lk.l' MOS_hvt
.ENDL TT_hvt

******************************  LIBRARY OF SNSP CORNER CASE  ******************************
.LIB SS_hvt
.lib 'cln90g_lk.l' CCO_pre_simu_hvt
.lib 'cln90g_lk.l' WPE_pre_simu_hvt
.param
+toxn_hvt       = 2.39E-09      dxln_hvt       = 5.0E-09       dxwn_hvt        = '-8.0E-09-0.5e-8'      
+dvthn_hvt      = 0.03          dlvthn_hvt     = 5.0E-10       dwvthn_hvt     = 3.5E-09       
+dpvthn_hvt     = 1.2E-16       dlcdscdn_hvt   = 0             deta0n_hvt     = 0             
+cjn_hvt        = 1.166E-03     cjswn_hvt      = 2.14E-11      cjswgn_hvt     = 4.494E-10     
+cgon_hvt       = 1.0435e-10    ntoxn_hvt      = -0.8          dlcitn_hvt     = 0
+dlvoffn_hvt    = 0             dpvsatn_hvt    = 0
+cgln_hvt       = 5.536E-11     dk2n_hvt       = 1e-2          dpvoffn_hvt    = 0
+toxp_hvt       = 2.56E-09      dxlp_hvt       = 5.0E-09       dxwp_hvt        = '-8.0E-09-0.5e-8'
+dvthp_hvt      = -0.03         dlvthp_hvt     = -8.5E-10      dwvthp_hvt     = -5.0E-10      
+dpvthp_hvt     = -1.0E-16      cjp_hvt        = 1.252E-03     cjswp_hvt      = 6.42E-11      
+cjswgp_hvt     = 4.387E-10     cgop_hvt       = 1.8228E-11    
+cglp_hvt       = 1.646E-10     dk2p_hvt       = 4.5e-3        dpvoffp_hvt    = 0
+drdswp_hvt     = -110          ntoxp_hvt      = -3.0          dpvsatp_hvt    = 0
+cfn_hvt        = '1.283E-10+3.1E-11*ccoflag_hvt'
+cfp_hvt        = '1.283E-10+3.1E-11*ccoflag_hvt'
.lib 'cln90g_lk.l' MOS_hvt
.ENDL SS_hvt

******************************  LIBRARY OF FNFP CORNER CASE  ******************************
.LIB FF_hvt
.lib 'cln90g_lk.l' CCO_pre_simu_hvt
.lib 'cln90g_lk.l' WPE_pre_simu_hvt
.param
+toxn_hvt       = 2.27E-09      dxln_hvt       = -5.0E-09      dxwn_hvt        = '8.0E-09-0.5e-8'       
+dvthn_hvt      = -0.03         dlvthn_hvt     = -1.3E-09      dwvthn_hvt     = -3.5E-09      
+dpvthn_hvt     = -1.1E-16      dlcdscdn_hvt   = 0             deta0n_hvt     = 0.01          
+cjn_hvt        = 1.014E-03     cjswn_hvt      = 1.86E-11      cjswgn_hvt     = 3.906E-10     
+cgon_hvt       = 1.2005E-10    ntoxn_hvt      = 2.7           dlcitn_hvt     = 6.0e-11
+dlvoffn_hvt    = -4.0e-10      dpvsatn_hvt    = -1.0e-11
+cgln_hvt       = 6.37E-11      dk2n_hvt       = -1e-2         dpvoffn_hvt    = -1.5e-17
+toxp_hvt       = 2.44E-09      dxlp_hvt       = -5.0E-09      dxwp_hvt        = '8.0E-09-0.5e-8'
+dvthp_hvt      = 0.03          dlvthp_hvt     = 1.2E-09       dwvthp_hvt     = 5.0E-10       
+dpvthp_hvt     = 3.0E-17       cjp_hvt        = 1.088E-03     cjswp_hvt      = 5.58E-11      
+cjswgp_hvt     = 3.813E-10     cgop_hvt       = 2.0972E-11   
+cglp_hvt       = 1.894E-10     dk2p_hvt       = -4.50e-3      dpvoffp_hvt    = 0
+drdswp_hvt     = 90            ntoxp_hvt      = 5.0           dpvsatp_hvt    = -8e-11
+cfn_hvt        = '1.477E-10+3.1E-11*ccoflag_hvt'
+cfp_hvt        = '1.477E-10+3.1E-11*ccoflag_hvt'
.lib 'cln90g_lk.l' MOS_hvt
.ENDL FF_hvt

******************************  LIBRARY OF SNFP CORNER CASE  ******************************
.LIB SF_hvt
.lib 'cln90g_lk.l' CCO_pre_simu_hvt
.lib 'cln90g_lk.l' WPE_pre_simu_hvt
.param
+A4NP_hvt=0 A1N_hvt=0.8 A1P_hvt=-0.8 A2N_hvt=0 A2P_hvt=0 A3N_hvt=-1 A3P_hvt=1 
+toxn_hvt = '2.33E-09 + 6.0000e-11*A4NP_hvt'   dxln_hvt = '5e-09*A2N_hvt'                   dxwn_hvt = '0.8e-08*A3N_hvt-0.5e-8'                  
+dvthn_hvt = '0.03*A1N_hvt'                    dlvthn_hvt = '1.3e-09*A1N_hvt'                dwvthn_hvt = '3.5e-09*A1N_hvt'                
+dpvthn_hvt = '1.1e-16*A1N_hvt'                dlcdscdn_hvt = '0*A1N_hvt'             deta0n_hvt = '-0.01*A1N_hvt'                  
+cjn_hvt = '1.09E-03 * (1+0.070*A1N_hvt)'      cjswn_hvt = '2.0E-11 * (1+0.070*A1N_hvt)'     cjswgn_hvt = '4.2E-10 * (1+0.070*A1N_hvt)'    
+cgon_hvt = '1.122e-10 * (1-0.070*A4NP_hvt)'   ntoxn_hvt = '1 + -1.7000e+00*A4NP_hvt'        cgln_hvt = '5.953E-11 * (1-0.070*A4NP_hvt)'   
+dk2n_hvt = '0.01*A1N_hvt'                     dpvoffn_hvt = '1.5e-17*A1N_hvt'               dlcitn_hvt     = '-6e-11*A1N_hvt'
+dlvoffn_hvt    = '4e-10*A1N_hvt'              dpvsatn_hvt    = '1.0e-11*A1N_hvt'
+toxp_hvt = '2.50E-09 + 6.0000e-11*A4NP_hvt'   dxlp_hvt = '5e-09*A2P_hvt'                    dxwp_hvt = '0.8e-08*A3P_hvt-0.5e-8'  
+dvthp_hvt = '-0.03*A1P_hvt'                   dlvthp_hvt = '-1.2e-09*A1P_hvt'               dwvthp_hvt = '-5e-10*A1P_hvt'                 
+dpvthp_hvt = '-3e-17*A1P_hvt'                 cjp_hvt = '1.17E-03 * (1+0.070*A1P_hvt)'      cjswp_hvt = '6.00E-11 * (1+0.070*A1P_hvt)'    
+cjswgp_hvt = '4.10E-10 * (1+0.070*A1P_hvt)'   cgop_hvt = '1.96e-11 * (1-0.070*A4NP_hvt)'    cglp_hvt = '1.77E-10 * (1-0.070*A4NP_hvt)'    
+dk2p_hvt = '0.0045*A1P_hvt'                   dpvoffp_hvt = 0                               drdswp_hvt = '-90*A1P_hvt'                    
+ntoxp_hvt = '1 + -4.0000e+00*A4NP_hvt'        dpvsatp_hvt    = '8e-11*A1P_hvt'
+cfn_hvt = '1.38E-10*(1-0.070*A4NP_hvt)+3.1E-11*ccoflag_hvt'
+cfp_hvt = '1.38E-10*(1-0.070*A4NP_hvt)+3.1E-11*ccoflag_hvt'

.lib 'cln90g_lk.l' MOS_hvt
.ENDL SF_hvt

******************************  LIBRARY OF FNSP CORNER CASE  ******************************
.LIB FS_hvt
.lib 'cln90g_lk.l' CCO_pre_simu_hvt
.lib 'cln90g_lk.l' WPE_pre_simu_hvt
.param
+A4NP_hvt=0 A1N_hvt=-0.8 A1P_hvt=0.8 A2N_hvt=0 A2P_hvt=0 A3N_hvt=1 A3P_hvt=-1 
+toxn_hvt = '2.33E-09 + 6.0000e-11*A4NP_hvt'   dxln_hvt = '5e-09*A2N_hvt'                   dxwn_hvt = '0.8e-08*A3N_hvt-0.5e-8'                  
+dvthn_hvt = '0.03*A1N_hvt'                    dlvthn_hvt = '1.3e-09*A1N_hvt'                dwvthn_hvt = '3.5e-09*A1N_hvt'                
+dpvthn_hvt = '1.1e-16*A1N_hvt'                dlcdscdn_hvt = '0*A1N_hvt'             deta0n_hvt = '-0.01*A1N_hvt'                  
+cjn_hvt = '1.09E-03 * (1+0.070*A1N_hvt)'      cjswn_hvt = '2.0E-11 * (1+0.070*A1N_hvt)'     cjswgn_hvt = '4.2E-10 * (1+0.070*A1N_hvt)'    
+cgon_hvt = '1.122e-10 * (1-0.070*A4NP_hvt)'   ntoxn_hvt = '1 + -1.7000e+00*A4NP_hvt'        cgln_hvt = '5.953E-11 * (1-0.070*A4NP_hvt)'   
+dk2n_hvt = '0.01*A1N_hvt'                     dpvoffn_hvt = '1.5e-17*A1N_hvt'               dlcitn_hvt = '-6e-11*A1N_hvt'
+dlvoffn_hvt  = '4e-10*A1N_hvt'                dpvsatn_hvt    = '1.0e-11*A1N_hvt'
+toxp_hvt = '2.50E-09 + 6.0000e-11*A4NP_hvt'   dxlp_hvt = '5e-09*A2P_hvt'                    dxwp_hvt = '0.8e-08*A3P_hvt-0.5e-8'  
+dvthp_hvt = '-0.03*A1P_hvt'                   dlvthp_hvt = '-1.2e-09*A1P_hvt'               dwvthp_hvt = '-5e-10*A1P_hvt'                 
+dpvthp_hvt = '-3e-17*A1P_hvt'                 cjp_hvt = '1.17E-03 * (1+0.070*A1P_hvt)'      cjswp_hvt = '6.00E-11 * (1+0.070*A1P_hvt)'    
+cjswgp_hvt = '4.10E-10 * (1+0.070*A1P_hvt)'   cgop_hvt = '1.96e-11 * (1-0.070*A4NP_hvt)'    cglp_hvt = '1.77E-10 * (1-0.070*A4NP_hvt)'    
+dk2p_hvt = '0.0045*A1P_hvt'                   dpvoffp_hvt = 0                               drdswp_hvt = '-90*A1P_hvt'                    
+ntoxp_hvt = '1 + -4.0000e+00*A4NP_hvt'        dpvsatp_hvt    = '8e-11*A1P_hvt'
+cfn_hvt = '1.38E-10*(1-0.070*A4NP_hvt)+3.1E-11*ccoflag_hvt'
+cfp_hvt = '1.38E-10*(1-0.070*A4NP_hvt)+3.1E-11*ccoflag_hvt'

.lib 'cln90g_lk.l' MOS_hvt
.ENDL FS_hvt


***************************************************************
*                                                             *
*                  1.0V LOW VT DEVICE LIB                     *
*                                                             *
***************************************************************

******************************    LIBRARY OF TYPICAL CASE    ******************************
.LIB TT_lvt
.lib 'cln90g_lk.l' CCO_pre_simu_lvt
.lib 'cln90g_lk.l' WPE_pre_simu_lvt
.param
+toxn_lvt       = 2.33E-09      cjn_lvt        = 9.87E-04      cjswn_lvt      = 3.5E-11       
+cjswgn_lvt     = 3.38E-10      cgon_lvt       = 1.16E-10      cgln_lvt       = 7.52E-11      
+dvthn_lvt      = 0             dpvthn_lvt     = 0             
+dxln_lvt       = 0             dxwn_lvt       = -0.5e-8       dlvthn_lvt     = 0             
+dwvthn_lvt     = 0             drdswn_lvt     = 0             dlcdscdn_lvt   = 0             
+deta0n_lvt     = 0             ntoxn_lvt      = 1             dk2n_lvt       = 0
+dlvoffn_lvt    = 0             dlcitn_lvt     = 0             dpvoffn_lvt    = 0
+dpeta0n_lvt    = 0             dpvsatn_lvt    = 0             dppclmn_lvt    = 0
+toxp_lvt       = 2.50E-09      ddsubn_lvt     = 0             dlvsatn_lvt    = 0
+dxlp_lvt       = 0             dxwp_lvt       = -0.5e-8
+dvthp_lvt      = 0             dlvthp_lvt     = 0             dwvthp_lvt     = 0             
+dpvthp_lvt     = 0             cjp_lvt        = 1.13E-03      cjswp_lvt      = 5.8E-11       
+cjswgp_lvt     = 3.05E-10      cgop_lvt       = 4.16E-11      cglp_lvt       = 1.72E-10      
+dlvoffp_lvt    = 0             dpvoffp_lvt    = 0             dk2p_lvt       = 0
+ntoxp_lvt      = 1             deta0p_lvt     = 0             dpeta0p_lvt    = 0
+dpvsatp_lvt    = 0             dlvsatp_lvt    = 0
+cfn_lvt        = '1.38E-10+3.1E-11*ccoflag_lvt'
+cfp_lvt        = '1.38E-10+3.1E-11*ccoflag_lvt'
.lib 'cln90g_lk.l' MOS_lvt
.ENDL TT_lvt

******************************  LIBRARY OF SNSP CORNER CASE  ******************************
.LIB SS_lvt
.lib 'cln90g_lk.l' CCO_pre_simu_lvt
.lib 'cln90g_lk.l' WPE_pre_simu_lvt
.param
+toxn_lvt       = 2.39E-09      cjn_lvt        = 1.0561E-03    cjswn_lvt      = 3.745E-11     
+cjswgn_lvt     = 3.6166E-10    cgon_lvt       = 1.079E-10     cgln_lvt       = 6.99E-11      
+dvthn_lvt      = 3.5E-02       dpvthn_lvt     = 5.5E-017      
+dxln_lvt       = 5.0E-09       dxwn_lvt       = '-8.0E-09-0.5e-8'      dlvthn_lvt     = 1.6E-09       
+dwvthn_lvt     = 3.6E-09       drdswn_lvt     = 5             dlcdscdn_lvt   = 0             
+deta0n_lvt     = 0             ntoxn_lvt      = -0.8          dk2n_lvt       = 8e-3
+dlvoffn_lvt    = 0             dlcitn_lvt     = 0             dpvoffn_lvt    = 0
+dpeta0n_lvt    = 0             dpvsatn_lvt    = 0             dppclmn_lvt    = 0
+toxp_lvt       = 2.56E-09      ddsubn_lvt     = 0             dlvsatn_lvt    = 0
+dxlp_lvt       = 5.0E-09       dxwp_lvt        = '-8.0E-09-0.5e-8'
+dvthp_lvt      = -3.0E-02      dlvthp_lvt     = -9.0E-10      dwvthp_lvt     = -9.0E-10      
+dpvthp_lvt     = -1.0E-16      cjp_lvt        = 1.209E-03     cjswp_lvt      = 6.206E-11     
+cjswgp_lvt     = 3.264E-10     cgop_lvt       = 3.869E-11     cglp_lvt       = 1.6E-10       
+dlvoffp_lvt    = 2.5E-10       dpvoffp_lvt    = 1.0E-16       dk2p_lvt       = 3E-3
+ntoxp_lvt      = -3.0          deta0p_lvt     = 0             dpeta0p_lvt    = 0
+dpvsatp_lvt    = 0             dlvsatp_lvt    = 0
+cfn_lvt        = '1.283E-10+3.1E-11*ccoflag_lvt'
+cfp_lvt        = '1.283E-10+3.1E-11*ccoflag_lvt'
.lib 'cln90g_lk.l' MOS_lvt
.ENDL SS_lvt

******************************  LIBRARY OF FNFP CORNER CASE  ******************************
.LIB FF_lvt
.lib 'cln90g_lk.l' CCO_pre_simu_lvt
.lib 'cln90g_lk.l' WPE_pre_simu_lvt
.param
+toxn_lvt       = 2.27E-09      cjn_lvt        = 9.1791E-04    cjswn_lvt      = 3.255E-11     
+cjswgn_lvt     = 3.1434E-10    cgon_lvt       = 1.241E-10     cgln_lvt       = 8.05E-11      
+dvthn_lvt      = -3.5E-02      dpvthn_lvt     = -1.2E-016     
+dxln_lvt       = -5.0E-09      dxwn_lvt        = '8.0E-09-0.5e-8'       dlvthn_lvt     = -1.1E-09      
+dwvthn_lvt     = -4.0E-09      drdswn_lvt     = 0             dlcdscdn_lvt   = 0       
+deta0n_lvt     = -0.025        ntoxn_lvt      = 2.7           dk2n_lvt       = -5e-3
+dlvoffn_lvt    = 1e-9          dlcitn_lvt     = 0e-10         dpvoffn_lvt    = 1e-16
+dpeta0n_lvt    = 7.0e-16       dpvsatn_lvt    = -5.0e-11      dppclmn_lvt    = -2e-16
+toxp_lvt       = 2.44E-09      ddsubn_lvt     = -0.09         dlvsatn_lvt    = -2.5e-4
+dxlp_lvt       = -5.0E-09      dxwp_lvt        = '8.0E-09-0.5e-8'
+dvthp_lvt      = 3.0E-02       dlvthp_lvt     = 1.0E-9         dwvthp_lvt     = 1.5E-9       
+dpvthp_lvt     = 1.3E-16       cjp_lvt        = 1.051E-03     cjswp_lvt      = 5.394E-11     
+cjswgp_lvt     = 2.836E-10     cgop_lvt       = 4.451E-11     cglp_lvt       = 1.84E-10      
+dlvoffp_lvt    = -1.0E-10      dpvoffp_lvt    = -0.3e-16      dk2p_lvt       = -3E-3  
+ntoxp_lvt      = 5.0           deta0p_lvt     = 0.020         dpeta0p_lvt    = 1e-16
+dpvsatp_lvt    = -1.3e-10      dlvsatp_lvt    = -6.5e-4
+cfn_lvt        = '1.477E-10+3.1E-11*ccoflag_lvt'
+cfp_lvt        = '1.477E-10+3.1E-11*ccoflag_lvt'
.lib 'cln90g_lk.l' MOS_lvt
.ENDL FF_lvt

******************************  LIBRARY OF SNFP CORNER CASE  ******************************
.LIB SF_lvt
.lib 'cln90g_lk.l' CCO_pre_simu_lvt
.lib 'cln90g_lk.l' WPE_pre_simu_lvt
.param
+A4NP_lvt=0 A1N_lvt=0.8 A1P_lvt=-0.8 A2N_lvt=0 A2P_lvt=0 A3N_lvt=0 A3P_lvt=0 
+toxn_lvt = '2.33E-09 + 6.0000e-11*A4NP_lvt'   cjn_lvt = '9.87E-04 * (1+0.070*A1N_lvt)'      cjswn_lvt = '3.5E-11 * (1+0.070*A1N_lvt)'     
+cjswgn_lvt = '3.38E-10 * (1+0.070*A1N_lvt)'   cgon_lvt = '1.16E-10 * (1-0.070*A4NP_lvt)'    cgln_lvt = '7.52E-11 * (1-0.070*A4NP_lvt)'    
+dvthn_lvt = '0.035*A1N_lvt'                   dpvthn_lvt = '1.2e-16*A1N_lvt'                dxln_lvt = '5e-09*A2N_lvt'                    
+dxwn_lvt = '0.8e-08*A3N_lvt-0.5e-08'          dlvthn_lvt = '1.1e-09*A1N_lvt'                dwvthn_lvt = '4e-09*A1N_lvt'                  
+drdswn_lvt = 0                                dlcdscdn_lvt = 0                              deta0n_lvt = '0.025*A1N_lvt'                  
+ntoxn_lvt = '1 + -1.7000e+00*A4NP_lvt'        dk2n_lvt = '0.005*A1N_lvt'                    dlvoffn_lvt = '-1e-9*A1N_lvt'                               
+dlcitn_lvt = '0*A1N_lvt'                      dpvoffn_lvt = '-1e-16*A1N_lvt'                dpeta0n_lvt = '-6e-16*A1N_lvt'                
+dpvsatn_lvt = '5e-11*A1N_lvt'                 dppclmn_lvt = '2e-16*A1N_lvt'                 toxp_lvt = '2.50E-09 + 6.0000e-11*A4NP_lvt'   
+ddsubn_lvt = '0.09*A1N_lvt'                   dlvsatn_lvt = '0.00025*A1N_lvt'               dxlp_lvt = '5e-09*A2P_lvt'                    
+dxwp_lvt = '0.8e-08*A3P_lvt-0.5e-08'          dvthp_lvt = '-0.03*A1P_lvt'                   dlvthp_lvt = '-1e-09*A1P_lvt'                 
+dwvthp_lvt = '-1.5e-09*A1P_lvt'               dpvthp_lvt = '-1.3e-16*A1P_lvt'               cjp_lvt = '1.13E-03 * (1+0.070*A1P_lvt)'      
+cjswp_lvt = '5.8E-11 * (1+0.070*A1P_lvt)'     cjswgp_lvt = '3.05E-10 * (1+0.070*A1P_lvt)'   cgop_lvt = '4.16E-11 * (1-0.070*A4NP_lvt)'    
+cglp_lvt = '1.72E-10 * (1-0.070*A4NP_lvt)'    dlvoffp_lvt = '1e-10*A1P_lvt'                 dpvoffp_lvt = '0.3e-16*A1P_lvt'               
+dk2p_lvt = '0.003*A1P_lvt'                    ntoxp_lvt = '1 + -4.0000e+00*A4NP_lvt'        deta0p_lvt = '-0.01*A1P_lvt'                  
+dpeta0p_lvt = '-1e-16*A1P_lvt'                dpvsatp_lvt = '1.3e-10*A1P_lvt'               dlvsatp_lvt = '0.00065*A1P_lvt'                         
+cfn_lvt = '1.38E-10*(1-0.070*A4NP_lvt)+3.1E-11*ccoflag_lvt'
+cfp_lvt = '1.38E-10*(1-0.070*A4NP_lvt)+3.1E-11*ccoflag_lvt'

.lib 'cln90g_lk.l' MOS_lvt
.ENDL SF_lvt

******************************  LIBRARY OF FNSP CORNER CASE  ******************************
.LIB FS_lvt
.lib 'cln90g_lk.l' CCO_pre_simu_lvt
.lib 'cln90g_lk.l' WPE_pre_simu_lvt
.param
+A4NP_lvt=0 A1N_lvt=-0.8 A1P_lvt=0.8 A2N_lvt=0 A2P_lvt=0 A3N_lvt=0 A3P_lvt=0 
+toxn_lvt = '2.33E-09 + 6.0000e-11*A4NP_lvt'   cjn_lvt = '9.87E-04 * (1+0.070*A1N_lvt)'      cjswn_lvt = '3.5E-11 * (1+0.070*A1N_lvt)'     
+cjswgn_lvt = '3.38E-10 * (1+0.070*A1N_lvt)'   cgon_lvt = '1.16E-10 * (1-0.070*A4NP_lvt)'    cgln_lvt = '7.52E-11 * (1-0.070*A4NP_lvt)'    
+dvthn_lvt = '0.035*A1N_lvt'                   dpvthn_lvt = '1.2e-16*A1N_lvt'                dxln_lvt = '5e-09*A2N_lvt'                    
+dxwn_lvt = '0.8e-08*A3N_lvt-0.5e-08'                  dlvthn_lvt = '1.1e-09*A1N_lvt'        dwvthn_lvt = '4e-09*A1N_lvt'                  
+drdswn_lvt = 0                                dlcdscdn_lvt = 0                              deta0n_lvt = '0.025*A1N_lvt'                  
+ntoxn_lvt = '1 + -1.7000e+00*A4NP_lvt'        dk2n_lvt = '0.005*A1N_lvt'                    dlvoffn_lvt = '-1e-9*A1N_lvt'                               
+dlcitn_lvt = '0*A1N_lvt'                      dpvoffn_lvt = '-1e-16*A1N_lvt'                dpeta0n_lvt = '-6e-16*A1N_lvt'                
+dpvsatn_lvt = '5e-11*A1N_lvt'                 dppclmn_lvt = '2e-16*A1N_lvt'                 toxp_lvt = '2.50E-09 + 6.0000e-11*A4NP_lvt'   
+ddsubn_lvt = '0.09*A1N_lvt'                   dlvsatn_lvt = '0.00025*A1N_lvt'               dxlp_lvt = '5e-09*A2P_lvt'                    
+dxwp_lvt = '0.8e-08*A3P_lvt-0.5e-08'                  dvthp_lvt = '-0.03*A1P_lvt'           dlvthp_lvt = '-1e-09*A1P_lvt'                 
+dwvthp_lvt = '-1.5e-09*A1P_lvt'               dpvthp_lvt = '-1.3e-16*A1P_lvt'               cjp_lvt = '1.13E-03 * (1+0.070*A1P_lvt)'      
+cjswp_lvt = '5.8E-11 * (1+0.070*A1P_lvt)'     cjswgp_lvt = '3.05E-10 * (1+0.070*A1P_lvt)'   cgop_lvt = '4.16E-11 * (1-0.070*A4NP_lvt)'    
+cglp_lvt = '1.72E-10 * (1-0.070*A4NP_lvt)'    dlvoffp_lvt = '1e-10*A1P_lvt'                 dpvoffp_lvt = '0.3e-16*A1P_lvt'               
+dk2p_lvt = '0.003*A1P_lvt'                    ntoxp_lvt = '1 + -4.0000e+00*A4NP_lvt'        deta0p_lvt = '-0.01*A1P_lvt'                  
+dpeta0p_lvt = '-1e-16*A1P_lvt'                dpvsatp_lvt = '1.3e-10*A1P_lvt'               dlvsatp_lvt = '0.00065*A1P_lvt'                         
+cfn_lvt = '1.38E-10*(1-0.070*A4NP_lvt)+3.1E-11*ccoflag_lvt'
+cfp_lvt = '1.38E-10*(1-0.070*A4NP_lvt)+3.1E-11*ccoflag_lvt'

.lib 'cln90g_lk.l' MOS_lvt
.ENDL FS_lvt

***************************************************************
*                                                             *
*                      1.8V DEVICE LIB                        *
*                                                             *
***************************************************************
******************************     LIBRARY OF TYPICAL CASE     *******************************
.LIB TT_18
.lib 'cln90g_lk.l' CCO_pre_simu_18
.lib 'cln90g_lk.l' WPE_pre_simu_18
.param
+toxn_18        = 3.45e-09      dxln_18        = 0             dxwn_18        = 0             
+dvthn_18       = 0             dlvthn_18      = 0             dwvthn_18      = 0             
+dlvsatn_18     = 0             dk2n_18        = 0             dlpclmn_18     = 0             
+drdswn_18      = 0             dlnfactorn_18  = 0             cjn_18         = 0.000966      
+cjswn_18       = 5.42e-11      cjswgn_18      = 2.9e-10       cgon_18        = 1.090E-10     
+cgln_18        = 7.492E-11     dlcn_18        = 2.153E-08     cfn_18         = '1.350E-10 + 2.4e-11*ccoflag_18' 

+toxp_18        = 3.7e-09       dxlp_18        = 0             dxwp_18        = 0             
+dvthp_18       = 0             dlvthp_18      = 0             dwvthp_18      = 0             
+dlvsatp_18     = 0             dk2p_18        = 0             dlpclmp_18     = 0             
+dlnfactorp_18  = 0             dwnfactorp_18  = 0             cjp_18         = 0.001078      
+cjswp_18       = 7e-11         cjswgp_18      = 3.09e-10      cgop_18        = 7.286E-11     
+cglp_18        = 1.045E-10     dlcp_18        = 2.689E-08     cfp_18         = '1.35e-10 + 2.4E-11*ccoflag_18'
.lib 'cln90g_lk.l' MOS_18
.ENDL TT_18

******************************   LIBRARY OF SNSP CORNER CASE   *******************************
.LIB SS_18
.lib 'cln90g_lk.l' CCO_pre_simu_18
.lib 'cln90g_lk.l' WPE_pre_simu_18
.param
+toxn_18        = 3.5833e-09    dxln_18        = 8e-09         dxwn_18        = -1.2e-08      
+dvthn_18       = 0.05          dlvthn_18      = 1.8e-09       dwvthn_18      = 6e-09         
+dlvsatn_18     = 0.0003        dk2n_18        = 0.01          dlpclmn_18     = -0.15e-07     
+drdswn_18      = 30            dlnfactorn_18  = 0             cjn_18         = 0.001034      
+cjswn_18       = 5.799e-11     cjswgn_18      = 3.103e-10     cgon_18        = 1.014E-10     
+cgln_18        = 6.968E-11     dlcn_18        = 2.153E-08     cfn_18         = '1.256E-10 + 2.4e-11*ccoflag_18' 

+toxp_18        = 3.8333e-09    dxlp_18        = 8e-09         dxwp_18        = -1.2e-08      
+dvthp_18       = -0.05         dlvthp_18      = -1.86e-09     dwvthp_18      = -7e-09        
+dlvsatp_18     = 0.0007        dk2p_18        = 0.012         dlpclmp_18     = -1.5e-08      
+dlnfactorp_18  = 0             dwnfactorp_18  = 0             cjp_18         = 0.001153      
+cjswp_18       = 7.49e-11      cjswgp_18      = 3.306e-10     cgop_18        = 6.78E-11      
+cglp_18        = 9.72250E-11   dlcp_18        = 2.689E-08     cfp_18         = '1.256e-10 + 2.4E-11*ccoflag_18' 
.lib 'cln90g_lk.l' MOS_18
.ENDL SS_18

******************************   LIBRARY OF FNFP CORNER CASE   *******************************
.LIB FF_18
.lib 'cln90g_lk.l' CCO_pre_simu_18
.lib 'cln90g_lk.l' WPE_pre_simu_18
.param
+toxn_18        = 3.3167e-09    dxln_18        = -8e-09        dxwn_18        = 1.2e-08       
+dvthn_18       = -0.05         dlvthn_18      = -1.8e-09      dwvthn_18      = -4e-09        
+dlvsatn_18     = -0.0008       dk2n_18        = -0.01         dlpclmn_18     = 0.4e-07       
+drdswn_18      = -25           dlnfactorn_18  = 0             cjn_18         = 0.0008984     
+cjswn_18       = 5.041e-11     cjswgn_18      = 2.7e-10       cgon_18        = 1.167E-10     
+cgln_18        = 8.016E-11     dlcn_18        = 2.153E-08     cfn_18         = '1.445E-10 + 2.4e-11*ccoflag_18' 

+toxp_18        = 3.5667e-09    dxlp_18        = -8e-09        dxwp_18        = 1.2e-08       
+dvthp_18       = 0.05          dlvthp_18      = 1.24e-09      dwvthp_18      = 5e-09         
+dlvsatp_18     = -0.0007       dk2p_18        = -0.012        dlpclmp_18     = 3e-08         
+dlnfactorp_18  = 0             dwnfactorp_18  = 0             cjp_18         = 0.001003      
+cjswp_18       = 6.51e-11      cjswgp_18      = 2.874e-10     cgop_18        = 7.80E-11      
+cglp_18        = 1.11861E-10   dlcp_18        = 2.689E-08     cfp_18         = '1.445e-10 + 2.4E-11*ccoflag_18' 
.lib 'cln90g_lk.l' MOS_18
.ENDL FF_18

******************************   LIBRARY OF SNFP CORNER CASE   *******************************
.LIB SF_18
.lib 'cln90g_lk.l' CCO_pre_simu_18
.lib 'cln90g_lk.l' WPE_pre_simu_18
.param
+A1N_18=0.8 A1P_18=-0.8 A2N_18=0 A2P_18=0 A3N_18=-1 A3P_18=1 A4N_18=1 A4P_18=-1 A5N_18=0 A5P_18=0
+toxn_18 = '3.45e-09 + 1.3330e-10*A4N_18'   dxln_18 = '8e-09*A2N_18'                    dxwn_18 = '1.2e-08*A3N_18'                  
+dvthn_18 = '0.05*A1N_18'                    dlvthn_18 = '1.8e-09*A1N_18'                dwvthn_18 = '4e-09*A1N_18'                  
+dlvsatn_18 = '0.0008*A1N_18+5e-4*A5N_18'    dk2n_18 = '0.01*A1N_18'                     dlpclmn_18 = '-4e-08*A1N_18'                
+drdswn_18 = '25*A1N_18'                     dlnfactorn_18 =  '-6e-08*A5P_18'                         cjn_18 = '0.000966 * (1+0.070*A1N_18)'      
+cjswn_18 = '5.42e-11 * (1+0.070*A1N_18)'    cjswgn_18 = '2.9e-10 * (1+0.069*A1N_18)'    cgon_18 = '1.090E-10 * (1-0.071*A4N_18)'   
+cgln_18 = '7.492E-11 * (1-0.070*A4N_18)'   dlcn_18 = 2.153E-08                         
+cfn_18 = '1.350E-10*(1-0.070*A4N_18)+2.4e-11*ccoflag_18'

+toxp_18 = '3.7e-09 + 1.3330e-10*A4P_18'    dxlp_18 = '8e-09*A2P_18'                    dxwp_18 = '1.2e-08*A3P_18'                  
+dvthp_18 = '-0.05*A1P_18'                   dlvthp_18 = '-1.24e-09*A1P_18'              dwvthp_18 = '-5e-09*A1P_18'                 
+dlvsatp_18 = '0.0007*A1P_18'                dk2p_18 = '0.012*A1P_18'                    dlpclmp_18 = '-3e-08*A1P_18'                
+dlnfactorp_18 = '-1.5e-08*A5P_18'           dwnfactorp_18 = '-7e-08*A5P_18'                         cjp_18 = '0.001078 * (1+0.070*A1P_18)'      
+cjswp_18 = '7e-11 * (1+0.070*A1P_18)'       cjswgp_18 = '3.09e-10 * (1+0.070*A1P_18)'   cgop_18 = '7.286E-11 * (1-0.071*A4P_18)'   
+cglp_18 = '1.045E-10 * (1-0.070*A4P_18)'   dlcp_18 = 2.689E-08                         
+cfp_18 = '1.35e-10*(1-0.070*A4P_18)+2.4E-11*ccoflag_18'
.lib 'cln90g_lk.l' MOS_18
.ENDL SF_18

******************************   LIBRARY OF FNSP CORNER CASE   *******************************
.LIB FS_18
.lib 'cln90g_lk.l' CCO_pre_simu_18
.lib 'cln90g_lk.l' WPE_pre_simu_18
.param
+A1N_18=-0.8 A1P_18=0.8 A2N_18=0 A2P_18=0 A3N_18=1 A3P_18=-1 A4N_18=-1 A4P_18=1 A5N_18=0 A5P_18=0
+toxn_18 = '3.45e-09 + 1.3330e-10*A4N_18'   dxln_18 = '8e-09*A2N_18'                    dxwn_18 = '1.2e-08*A3N_18'                  
+dvthn_18 = '0.05*A1N_18'                    dlvthn_18 = '1.8e-09*A1N_18'                dwvthn_18 = '4e-09*A1N_18'                  
+dlvsatn_18 = '0.0008*A1N_18+5e-4*A5N_18'    dk2n_18 = '0.01*A1N_18'                     dlpclmn_18 = '-4e-08*A1N_18'                
+drdswn_18 = '25*A1N_18'                     dlnfactorn_18 =  '-6e-08*A5P_18'                         cjn_18 = '0.000966 * (1+0.070*A1N_18)'      
+cjswn_18 = '5.42e-11 * (1+0.070*A1N_18)'    cjswgn_18 = '2.9e-10 * (1+0.069*A1N_18)'    cgon_18 = '1.090E-10 * (1-0.071*A4N_18)'   
+cgln_18 = '7.492E-11 * (1-0.070*A4N_18)'   dlcn_18 = 2.153E-08                         
+cfn_18 = '1.350E-10*(1-0.070*A4N_18)+2.4e-11*ccoflag_18'

+toxp_18 = '3.7e-09 + 1.3330e-10*A4P_18'    dxlp_18 = '8e-09*A2P_18'                    dxwp_18 = '1.2e-08*A3P_18'                  
+dvthp_18 = '-0.05*A1P_18'                   dlvthp_18 = '-1.24e-09*A1P_18'              dwvthp_18 = '-5e-09*A1P_18'                 
+dlvsatp_18 = '0.0007*A1P_18'                dk2p_18 = '0.012*A1P_18'                    dlpclmp_18 = '-3e-08*A1P_18'                
+dlnfactorp_18 = '-1.5e-08*A5P_18'           dwnfactorp_18 = '-7e-08*A5P_18'                         cjp_18 = '0.001078 * (1+0.070*A1P_18)'      
+cjswp_18 = '7e-11 * (1+0.070*A1P_18)'       cjswgp_18 = '3.09e-10 * (1+0.070*A1P_18)'   cgop_18 = '7.286E-11 * (1-0.071*A4P_18)'   
+cglp_18 = '1.045E-10 * (1-0.070*A4P_18)'   dlcp_18 = 2.689E-08                         
+cfp_18 = '1.35e-10*(1-0.070*A4P_18)+2.4E-11*ccoflag_18' 
.lib 'cln90g_lk.l' MOS_18
.ENDL FS_18

***************************************************************
*                                                             *
*                      3.3V DEVICE LIB                        *
*                                                             *
***************************************************************


******************************     LIBRARY OF TYPICAL CASE     *******************************
.LIB TT_33
.lib 'cln90g_lk.l' CCO_pre_simu_33
.lib 'cln90g_lk.l' WPE_pre_simu_33
.param
+toxn_33        = 7.2e-09       dxln_33        = 0             dxwn_33        = 0             
+dvthn_33       = 0             dlvthn_33      = 0             dwvthn_33      = 0             
+du0n_33        = 0             dlu0n_33       = 0             drdswn_33      = 0             
+dk2n_33        = 0             cjn_33         = 9.620E-04     cjswn_33       = 1.38E-10      
+cjswgn_33      = 2.48E-10      cgon_33        = 8.516E-12     cgln_33        = 2.108E-10     
+cfn_33         = '1.110E-10 + 3.5e-11*ccoflag_33' 

+toxp_33        = 7.5e-09       dxlp_33        = 0             dxwp_33        = 0             
+dvthp_33       = 0             dlvthp_33      = 0             dwvthp_33      = 0             
+du0p_33        = 0             dlu0p_33       = 0             drdswp_33      = 0             
+dk2p_33        = 0             cjp_33         = 1.040E-03     cjswp_33       = 7.00E-11      
+cjswgp_33      = 1.53E-10      cgop_33        = 2.48E-11      cglp_33        = 1.716E-10     
+cfp_33         = '1.110E-10 + 3.5e-11*ccoflag_33' 
.lib 'cln90g_lk.l' MOS_33
.ENDL TT_33

******************************   LIBRARY OF SNSP CORNER CASE   *******************************
.LIB SS_33
.lib 'cln90g_lk.l' CCO_pre_simu_33
.lib 'cln90g_lk.l' WPE_pre_simu_33
.param
+toxn_33        = 7.5e-09       dxln_33        = 1.2e-08       dxwn_33        = -1.2e-08      
+dvthn_33       = 0.041         dlvthn_33      = 7e-09         dwvthn_33      = 3e-09         
+du0n_33        = -8            dlu0n_33       = -5e-6         drdswn_33      = 90            
+dk2n_33        = 0.01          cjn_33         = 1.029E-03     cjswn_33       = 1.477E-10     
+cjswgn_33      = 2.654E-10     cgon_33        = 7.920E-12     cgln_33        = 1.960E-10     
+cfn_33         = '1.032E-10 + 3.5e-11*ccoflag_33' 

+toxp_33        = 7.8e-09       dxlp_33        = 1.2e-08       dxwp_33        = -1.2e-08      
+dvthp_33       = -0.056        dlvthp_33      = -5e-10        dwvthp_33      = -2e-09        
+du0p_33        = -1            dlu0p_33       = -1e-8         drdswp_33      = 70            
+dk2p_33        = 0.01          cjp_33         = 1.113E-03     cjswp_33       = 7.490E-11     
+cjswgp_33      = 1.637E-10     cgop_33        = 2.31E-11      cglp_33        = 1.59588E-10   
+cfp_33         = '1.032E-10 + 3.5e-11*ccoflag_33' 
.lib 'cln90g_lk.l' MOS_33
.ENDL SS_33

******************************   LIBRARY OF FNFP CORNER CASE   *******************************
.LIB FF_33
.lib 'cln90g_lk.l' CCO_pre_simu_33
.lib 'cln90g_lk.l' WPE_pre_simu_33
.param
+toxn_33        = 6.9e-09       dxln_33        = -1.2e-08      dxwn_33        = 1.2e-08       
+dvthn_33       = -0.041        dlvthn_33      = -7e-09        dwvthn_33      = -3e-09        
+du0n_33        = 8             dlu0n_33       = 5e-6          drdswn_33      = -60           
+dk2n_33        = -0.01         cjn_33         = 8.947E-04     cjswn_33       = 1.283E-10     
+cjswgn_33      = 2.306E-10     cgon_33        = 9.112E-12     cgln_33        = 2.256E-10     
+cfn_33         = '1.188E-10 + 3.5e-11*ccoflag_33' 

+toxp_33        = 7.2e-09       dxlp_33        = -1.2e-08      dxwp_33        = 1.2e-08       
+dvthp_33       = 0.056         dlvthp_33      = 1e-10         dwvthp_33      = 2e-09         
+du0p_33        = 1             dlu0p_33       = 1e-8          drdswp_33      = 0             
+dk2p_33        = -0.01         cjp_33         = 9.672E-04     cjswp_33       = 6.510E-11     
+cjswgp_33      = 1.423E-10     cgop_33        = 2.65E-11      cglp_33        = 1.83612E-10   
+cfp_33         = '1.188E-10 + 3.5e-11*ccoflag_33' 
.lib 'cln90g_lk.l' MOS_33
.ENDL FF_33

******************************   LIBRARY OF SNFP CORNER CASE   *******************************
.LIB SF_33
.lib 'cln90g_lk.l' CCO_pre_simu_33
.lib 'cln90g_lk.l' WPE_pre_simu_33
.param
+A1N_33=0.8 A1P_33=-0.8 A2N_33=0 A2P_33=0 A3N_33=-1 A3P_33=1 A4NP_33=0
+toxn_33 = '7.2e-09 + 3.0000e-10*A4NP_33'    dxln_33 = '1.2e-08*A2N_33'                  dxwn_33 = '1.2e-08*A3N_33'                  
+dvthn_33 = '0.041*A1N_33'                   dlvthn_33 = '7e-09*A1N_33'                  dwvthn_33 = '3e-09*A1N_33'                  
+du0n_33 = '-8*A1N_33'                       dlu0n_33 = '-5e-06*A1N_33'                  drdswn_33 = '60*A1N_33'                     
+dk2n_33 = '0.01*A1N_33'                     cjn_33 = '9.620E-04 * (1+0.070*A1N_33)'     cjswn_33 = '1.38E-10 * (1+0.070*A1N_33)'    
+cjswgn_33 = '2.48E-10 * (1+0.070*A1N_33)'   cgon_33 = '8.516E-12 * (1-0.070*A4NP_33)'   cgln_33 = '2.108E-10 * (1-0.070*A4NP_33)'   
+cfn_33 = '1.110E-10*(1-0.070*A4NP_33)+3.5e-11*ccoflag_33'

+toxp_33 = '7.5e-09 + 3.0000e-10*A4NP_33'    dxlp_33 = '1.2e-08*A2P_33'                  dxwp_33 = '1.2e-08*A3P_33'                  
+dvthp_33 = '-0.056*A1P_33'                  dlvthp_33 = '-1e-10*A1P_33'                 dwvthp_33 = '-2e-09*A1P_33'                 
+du0p_33 = '-1*A1P_33'                       dlu0p_33 = '-1e-08*A1P_33'                  drdswp_33 = 0                               
+dk2p_33 = '0.01*A1P_33'                     cjp_33 = '1.040E-03 * (1+0.070*A1P_33)'     cjswp_33 = '7.00E-11 * (1+0.070*A1P_33)'    
+cjswgp_33 = '1.53E-10 * (1+0.070*A1P_33)'   cgop_33 = '2.48E-11 * (1-0.069*A4NP_33)'    cglp_33 = '1.716E-10 * (1-0.070*A4NP_33)'   
+cfp_33 = '1.110E-10*(1-0.070*A4NP_33)+3.5e-11*ccoflag_33'
.lib 'cln90g_lk.l' MOS_33
.ENDL SF_33

******************************   LIBRARY OF FNSP CORNER CASE   *******************************
.LIB FS_33
.lib 'cln90g_lk.l' CCO_pre_simu_33
.lib 'cln90g_lk.l' WPE_pre_simu_33
.param
+A1N_33=-0.8 A1P_33=0.8 A2N_33=0 A2P_33=0 A3N_33=1 A3P_33=-1 A4NP_33=0
+toxn_33 = '7.2e-09 + 3.0000e-10*A4NP_33'    dxln_33 = '1.2e-08*A2N_33'                  dxwn_33 = '1.2e-08*A3N_33'                  
+dvthn_33 = '0.041*A1N_33'                   dlvthn_33 = '7e-09*A1N_33'                  dwvthn_33 = '3e-09*A1N_33'                  
+du0n_33 = '-8*A1N_33'                       dlu0n_33 = '-5e-06*A1N_33'                  drdswn_33 = '60*A1N_33'                     
+dk2n_33 = '0.01*A1N_33'                     cjn_33 = '9.620E-04 * (1+0.070*A1N_33)'     cjswn_33 = '1.38E-10 * (1+0.070*A1N_33)'    
+cjswgn_33 = '2.48E-10 * (1+0.070*A1N_33)'   cgon_33 = '8.516E-12 * (1-0.070*A4NP_33)'   cgln_33 = '2.108E-10 * (1-0.070*A4NP_33)'   
+cfn_33 = '1.110E-10*(1-0.070*A4NP_33)+3.5e-11*ccoflag_33'

+toxp_33 = '7.5e-09 + 3.0000e-10*A4NP_33'    dxlp_33 = '1.2e-08*A2P_33'                  dxwp_33 = '1.2e-08*A3P_33'                  
+dvthp_33 = '-0.056*A1P_33'                  dlvthp_33 = '-1e-10*A1P_33'                 dwvthp_33 = '-2e-09*A1P_33'                 
+du0p_33 = '-1*A1P_33'                       dlu0p_33 = '-1e-08*A1P_33'                  drdswp_33 = 0                               
+dk2p_33 = '0.01*A1P_33'                     cjp_33 = '1.040E-03 * (1+0.070*A1P_33)'     cjswp_33 = '7.00E-11 * (1+0.070*A1P_33)'    
+cjswgp_33 = '1.53E-10 * (1+0.070*A1P_33)'   cgop_33 = '2.48E-11 * (1-0.069*A4NP_33)'    cglp_33 = '1.716E-10 * (1-0.070*A4NP_33)'   
+cfp_33 = '1.110E-10*(1-0.070*A4NP_33)+3.5e-11*ccoflag_33'
.lib 'cln90g_lk.l' MOS_33
.ENDL FS_33

***************************************************************
*                                                             *
*               1.0V NATIVE NMOS DEVICE LIB                   *
*                                                             *
***************************************************************
*
******************************    LIBRARY OF TYPICAL CASE    ******************************
.LIB TT_na
.lib 'cln90g_lk.l' CCO_pre_simu_na
.param
+toxn_na        = 2.33E-09      cjn_na         = 1.4400E-04    cjswn_na       = 1.6000E-10    
+cjswgn_na      = 1.3900E-10    cgon_na        = 8.54E-11      cgln_na        = 1.3600E-10    
+dvthn_na       = 0             dpvthn_na      = 0             dxl_na         = 0             
+dxw_na         = -5.0E-09      dlvthn_na      = 0             dwvthn_na      = 0             
+ntoxn_na       = 1
+cfn_na         = '1.38E-10+3.1E-11*ccoflag_na'
.lib 'cln90g_lk.l' MOS_na
.ENDL TT_na

******************************  LIBRARY OF SNSP CORNER CASE  ******************************
.LIB SS_na
.lib 'cln90g_lk.l' CCO_pre_simu_na
.param
+toxn_na        = 2.39E-09      cjn_na         = 1.541E-04     cjswn_na       = 1.712E-10     
+cjswgn_na      = 1.4873E-10    cgon_na        = 7.9422E-11    cgln_na        = 1.2648E-10    
+dvthn_na       = 3.500E-02     dpvthn_na      = 1.9E-016      dxl_na         = 5.000E-09     
+dxw_na         = '-8.000E-09-5.0E-09'    
+dlvthn_na      = 3.0E-09       dwvthn_na      = 3.0E-09       
+ntoxn_na       = -0.8
+cfn_na         = '1.283E-10+3.1E-11*ccoflag_na'
.lib 'cln90g_lk.l' MOS_na
.ENDL SS_na

******************************  LIBRARY OF FNFP CORNER CASE  ******************************
.LIB FF_na
.lib 'cln90g_lk.l' CCO_pre_simu_na
.param
+toxn_na        = 2.27E-09      cjn_na         = 1.339E-04     cjswn_na       = 1.488E-10     
+cjswgn_na      = 1.293E-10     cgon_na        = 9.1378E-11    cgln_na        = 1.4552E-10    
+dvthn_na       = -3.500E-02    dpvthn_na      = -1.15E-016    dxl_na         = -5.000E-09    
+dxw_na         = '8.000E-09-5.0E-09'     
+dlvthn_na      = -3.5E-09      dwvthn_na      = -3.0E-09      
+ntoxn_na       = 2.7
+cfn_na         = '1.477E-10+3.1E-11*ccoflag_na'
.lib 'cln90g_lk.l' MOS_na
.ENDL FF_na

******************************  LIBRARY OF SNFP CORNER CASE  ******************************
.LIB SF_na
.lib 'cln90g_lk.l' CCO_pre_simu_na
.param
+toxn_na        = 2.33E-09      cjn_na         = 1.541E-04     cjswn_na       = 1.712E-10     
+cjswgn_na      = 1.4873E-10    cgon_na        = 8.54E-11      cgln_na        = 1.3600E-10    
+dvthn_na       = 3.500E-02     dpvthn_na      = 1.9E-016      dxl_na         = 0             
+dxw_na         = -5.0E-09      dlvthn_na      = 2.8E-09       dwvthn_na      = 1.0E-09       
+ntoxn_na       = 1
+cfn_na         = '1.38E-10+3.1E-11*ccoflag_na'
.lib 'cln90g_lk.l' MOS_na
.ENDL SF_na

******************************  LIBRARY OF FNSP CORNER CASE  ******************************
.LIB FS_na
.lib 'cln90g_lk.l' CCO_pre_simu_na
.param
+toxn_na        = 2.33E-09      cjn_na         = 1.339E-04     cjswn_na       = 1.488E-10     
+cjswgn_na      = 1.293E-10     cgon_na        = 8.54E-11      cgln_na        = 1.3600E-10    
+dvthn_na       = -3.500E-02    dpvthn_na      = -1.15E-016    dxl_na         = 0             
+dxw_na         = -5.0E-09      dlvthn_na      = -3.4E-09      dwvthn_na      = -1.0E-09      
+ntoxn_na       = 1
+cfn_na         = '1.38E-10+3.1E-11*ccoflag_na'
.lib 'cln90g_lk.l' MOS_na
.ENDL FS_na

*******************************************************************************************
*
*
***************************************************************
*                                                             *
*               1.8V NATIVE NMOS DEVICE LIB                   *
*                                                             *
***************************************************************
*
******************************    LIBRARY OF TYPICAL CASE    ******************************
.LIB TT_na18
.lib 'cln90g_lk.l' CCO_pre_simu_na18
.param
+toxn_na18        = 3.45E-09    dxl_na18         = 0           dxw_na18         = 0           
+dvthn_na18       = 0           dlvthn_na18      = 0           dwvthn_na18      = 0           
+cjn_na18         = 1.42E-04    cjswn_na18       = 2.54E-10    cjswgn_na18      = 1.08E-10    
+cgon_na18        = 3.78E-11    cgln_na18        = 2.816E-10   
+cfn_na18         = '1.35E-10+2.4E-11*ccoflag_na18'
.lib 'cln90g_lk.l' MOS_na18
.ENDL TT_na18

******************************  LIBRARY OF SNSP CORNER CASE  ******************************
.LIB SS_na18
.lib 'cln90g_lk.l' CCO_pre_simu_na18
.param
+toxn_na18        = 3.5833E-09  dxl_na18         = 8.00E-09    dxw_na18         = -1.20E-08   
+dvthn_na18       = 0.05        dlvthn_na18      = 1.5E-08     dwvthn_na18      = 5.0E-09     
+cjn_na18         = 1.5194E-04  cjswn_na18       = 2.7178E-10  cjswgn_na18      = 1.1556E-10  
+cgon_na18        = 3.5154E-11  cgln_na18        = 2.619E-10   
+cfn_na18         = '1.255E-10+2.4E-11*ccoflag_na18'
.lib 'cln90g_lk.l' MOS_na18
.ENDL SS_na18

******************************  LIBRARY OF FNFP CORNER CASE  ******************************
.LIB FF_na18
.lib 'cln90g_lk.l' CCO_pre_simu_na18
.param
+toxn_na18        = 3.3167E-09  dxl_na18         = -8.00E-09   dxw_na18         = 1.20E-08    
+dvthn_na18       = -0.05       dlvthn_na18      = -1.5E-08    dwvthn_na18      = -5.0E-09    
+cjn_na18         = 1.3206E-04  cjswn_na18       = 2.3622E-10  cjswgn_na18      = 1.0044E-10  
+cgon_na18        = 4.0446E-11  cgln_na18        = 3.013E-10   
+cfn_na18         = '1.445E-10+2.4E-11*ccoflag_na18'
.lib 'cln90g_lk.l' MOS_na18
.ENDL FF_na18

******************************  LIBRARY OF SNFP CORNER CASE  ******************************
.LIB SF_na18
.lib 'cln90g_lk.l' CCO_pre_simu_na18
.param
+toxn_na18        = 3.45E-09    dxl_na18         = 0           dxw_na18         = 0           
+dvthn_na18       = 0.05        dlvthn_na18      = 1.0E-08     dwvthn_na18      = 5.0E-09     
+cjn_na18         = 1.5194E-04  cjswn_na18       = 2.7178E-10  cjswgn_na18      = 1.1556E-10  
+cgon_na18        = 3.78E-11    cgln_na18        = 2.816E-10   
+cfn_na18         = '1.35E-10+2.4E-11*ccoflag_na18'
.lib 'cln90g_lk.l' MOS_na18
.ENDL SF_na18

******************************  LIBRARY OF FNSP CORNER CASE  ******************************
.LIB FS_na18
.lib 'cln90g_lk.l' CCO_pre_simu_na18
.param
+toxn_na18        = 3.45E-09    dxl_na18         = 0           dxw_na18         = 0           
+dvthn_na18       = -0.05       dlvthn_na18      = -1.0E-08    dwvthn_na18      = -5.0E-09    
+cjn_na18         = 1.3206E-04  cjswn_na18       = 2.3622E-10  cjswgn_na18      = 1.0044E-10  
+cgon_na18        = 3.78E-11    cgln_na18        = 2.816E-10   
+cfn_na18         = '1.35E-10+2.4E-11*ccoflag_na18'
.lib 'cln90g_lk.l' MOS_na18
.ENDL FS_na18

*******************************************************************************************
*
*
***************************************************************
*                                                             *
*               3.3V NATIVE NMOS DEVICE LIB                   *
*                                                             *
***************************************************************
*
******************************    LIBRARY OF TYPICAL CASE    ******************************
.LIB TT_na33
.lib 'cln90g_lk.l' CCO_pre_simu_na33
.param
+toxn_na33        = 72E-10      cjn_na33         = 1.39e-04    cjswn_na33       = 1.97E-10    
+cjswgn_na33      = 1.26E-10    cgon_na33        = 3.0E-11     cgln_na33        = 1.60E-10    
+du0n_na33        = 0           dvthn_na33       = 0           
+dlvthn_na33      = 0           hdifn_na33       = 1.275E-07   dxl_na33         = 0           
+dxw_na33         = 0           rshn_na33        = 10.5        
+cfn_na33         = '1.11E-10+3.5E-11*ccoflag_na33'
.lib 'cln90g_lk.l' MOS_na33
.ENDL TT_na33

******************************  LIBRARY OF SNSP CORNER CASE  ******************************
.LIB SS_na33
.lib 'cln90g_lk.l' CCO_pre_simu_na33
.param
+toxn_na33        = 75E-10      cjn_na33         = 1.4873e-04  cjswn_na33       = 2.1079E-10  
+cjswgn_na33      = 1.3482E-10  cgon_na33        = 2.79E-11    cgln_na33        = 1.488E-10   
+du0n_na33        = -1.5E-03    dvthn_na33       = 0.045       
+dlvthn_na33      = 3.5e-8      hdifn_na33       = 1.275E-07   dxl_na33         = 1.2E-08     
+dxw_na33         = -1.2E-08    rshn_na33        = 10.5        
+cfn_na33         = '1.032E-10+3.5E-11*ccoflag_na33'
.lib 'cln90g_lk.l' MOS_na33
.ENDL SS_na33

******************************  LIBRARY OF FNFP CORNER CASE  ******************************
.LIB FF_na33
.lib 'cln90g_lk.l' CCO_pre_simu_na33
.param
+toxn_na33        = 69E-10      cjn_na33         = 1.2927e-04  cjswn_na33       = 1.8321E-10  
+cjswgn_na33      = 1.1718E-10  cgon_na33        = 3.21E-11    cgln_na33        = 1.712E-10   
+du0n_na33        = 1.5E-03     dvthn_na33       = -0.045      
+dlvthn_na33      = -3.5e-8     hdifn_na33       = 1.275E-07   dxl_na33         = -1.2E-08    
+dxw_na33         = 1.2E-08     rshn_na33        = 10.5        
+cfn_na33         = '1.188E-10+3.5E-11*ccoflag_na33'
.lib 'cln90g_lk.l' MOS_na33
.ENDL FF_na33

******************************  LIBRARY OF SNFP CORNER CASE  ******************************
.LIB SF_na33
.lib 'cln90g_lk.l' CCO_pre_simu_na33
.param
+toxn_na33        = 72E-10      cjn_na33         = 1.4873e-04  cjswn_na33       = 2.1079E-10  
+cjswgn_na33      = 1.3482E-10  cgon_na33        = 3.0E-11     cgln_na33        = 1.60E-10    
+du0n_na33        = -1.5E-03    dvthn_na33       = 0.045       
+dlvthn_na33      = 2.5e-8      hdifn_na33       = 1.275E-07   dxl_na33         = 0           
+dxw_na33         = 0           rshn_na33        = 10.5        
+cfn_na33         = '1.11E-10+3.5E-11*ccoflag_na33'
.lib 'cln90g_lk.l' MOS_na33
.ENDL SF_na33

******************************  LIBRARY OF FNSP CORNER CASE  ******************************
.LIB FS_na33
.lib 'cln90g_lk.l' CCO_pre_simu_na33
.param
+toxn_na33        = 72E-10      cjn_na33         = 1.2927e-04  cjswn_na33       = 1.8321E-10  
+cjswgn_na33      = 1.1718E-10  cgon_na33        = 3.0E-11     cgln_na33        = 1.60E-10    
+du0n_na33        = 1.5E-03     dvthn_na33       = -0.045      
+dlvthn_na33      = -2.5e-8     hdifn_na33       = 1.275E-07   dxl_na33         = 0           
+dxw_na33         = 0           rshn_na33        = 10.5        
+cfn_na33         = '1.11E-10+3.5E-11*ccoflag_na33'
.lib 'cln90g_lk.l' MOS_na33
.ENDL FS_na33

***************************************************************
*                                                             *
*               1.0V STANDARD VT DEVICE LIB                   *
*                                                             *
***************************************************************
*
.LIB MOS
*
*******************************************************************************************
*                                                                                         *
*                            1.0V STANDARD VT NMOS DEVICE MODELS                          *
*                                                                                         *
*******************************************************************************************

.MODEL nch.1 NMOS	(	LMIN     = '1.0000E-05-dxln'         LMAX     = 2.001E-05                
+WMIN     = '1.0000E-05-dxwn'         WMAX     = 9.001E-04                LEVEL    = 54                       
+VERSION  = 4.5                 BINUNIT  = 2                   PARAMCHK = 1                   
+MOBMOD   = 0                   CAPMOD   = 2                   IGCMOD   = 1                   
+IGBMOD   = 1                   DIOMOD   = 1                   RDSMOD   = 0                   
+RBODYMOD = 0                   RGATEMOD = 0                   PERMOD   = 1                   
+ACNQSMOD = 0                   TRNQSMOD = 0                   TNOM     = 25                  
+TOXE     = 'toxn'              TOXM     = 'toxn'              DTOX     = 3e-010              
+EPSROX   = 3.9                 WINT     = 6e-009              LINT     = 2.5e-009            
+LL       = 0                   WL       = 0                   LLN      = 1                   
+WLN      = 1                   LW       = 0                   WW       = 0                   
+LWN      = 1                   WWN      = 1                   LWL      = 0                   
+WWL      = 0                   LLC      = 0                   WLC      = 0                   
+LWC      = 0                   WWC      = 0                   LWLC     = 0                   
+WWLC     = 0                   DLC      = 1.172e-008           DWC      = 0                   
+XPART    = 1                   TOXREF   = 3e-009              DLCIG    = 2.5e-009            
+XL       = '-3.5E-08+dxln'     XW       = '1.5e-8+dxwn'       VTH0     = '0.228+dvthn'       
+WVTH0    = '0+dwvthn'          LVTH0    = '0+dlvthn'          PVTH0    = '0+dpvthn'          
+K1       = 0.3231             
+K2       = '0.008228+dk2n'     
+K3       = -2.7                
+K3B      = 1.2                 W0       = -5e-008             DVT0     = 13.9                
+DVT1     = 1.25                DVT2     = 0                   DVT0W    = 0                   
+DVT1W    = 0                   DVT2W    = 0                   DSUB     = 0.5                 
+MINV     = 0                   VOFFL    = 0                   DVTP0    = 4e-007              
+DVTP1    = 2                   LPE0     = 4.45e-008           LPEB     = 0                   
+XJ       = 1.5e-007            NGATE    = 4e020               NDEP     = 8.3687e017          
+NSD      = 1e020               PHIN     = 0                   CDSC     = 0                   
+CDSCB    = 0                   CDSCD    = 0                   CIT      = 0                   
+VOFF     = -0.1059             NFACTOR  = 0.5                 ETA0     = 0.22                
+peta0    = '0+dpeta0n' 
+pvoff    = '0+dpvoffn' 
+ETAB     = -0.1                U0       = 0.03918             UA       = -6.284e-010         
+UB       = 2.158e-018          UC       = 2.277e-010          VSAT     = 114000              
+pvsat    = '0+dpvsatn' 
+A0       = 2.375               AGS      = 0.95                A1       = 0                   
+A2       = 1                   B0       = 0                   B1       = 0                   
+KETA     = -0.045              DWG      = 0                   DWB      = 0                   
+PCLM     = 0.84                PDIBLC1  = 0                   PDIBLC2  = 0.0001              
+PDIBLCB  = 0                   DROUT    = 0                   PVAG     = 1.5                 
+DELTA    = 0.0075              PSCBE1   = 9.264e008           PSCBE2   = 1e-020              
+FPROUT   = 200                 PDITS    = 0                   PDITSD   = 0                   
+PDITSL   = 0                   RSH      = 10.5                RDSW     = 140                 
+PRWG     = 0                   PRWB     = 0                   WR       = 1                   
+ALPHA0   = 0                   ALPHA1   = 0.03                BETA0    = 8.7                 
+AGIDL    = 9e-008              BGIDL    = 2.3e009             CGIDL    = 0.5                 
+EGIDL    = 0.53                AIGBACC  = 0.01134             BIGBACC  = 0.003249            
+CIGBACC  = 0.1416              NIGBACC  = 4.05                AIGBINV  = 0.35                
+BIGBINV  = 0.03                CIGBINV  = 0.006               EIGBINV  = 1.1                 
+NIGBINV  = 1                   AIGC     = 0.0103              BIGC     = 0.001525            
+CIGC     = 0                   AIGSD    = 0.00845             BIGSD    = 0.0004021           
+CIGSD    = 0.001463            NIGC     = 1                   POXEDGE  = 1                   
+PIGCD    = 2.3                 NTOX     = 'ntoxn'             XRCRG1   = 12                  
+XRCRG2   = 1                   CGSO     = 'cgon'              CGDO     = 'cgon'              
+CGBO     = 0                   CGDL     = 'cgln'              CGSL     = 'cgln'              
+CLC      = 1e-007              CLE      = 0.6                 CF       = 'cfn'                      
+CKAPPAS  = 0.6                 ACDE     = 1.2                 MOIN     = 12.6                
+NOFF     = 1.686               VOFFCV   = -0.05472            KT1      = -0.2081             
+KT1L     = 0                   KT2      = -0.04464            UTE      = -1.73               
+UA1      = 2.684e-009          UB1      = -3.673e-018         UC1      = -6.421e-011         
+PRT      = 0                   AT       = 45000               JSS      = 1.77E-07            
+JSWS     = 4.23E-13            JSWGS    = 9E-12               NJS      = 1                   
+IJTHSFWD = 0.01                IJTHSREV = 0.01                BVS      = 10                  
+XJBVS    = 1                   PBS      = 0.5                 CJS      = 'cjn'               
+MJS      = 0.25                PBSWS    = 0.8                 CJSWS    = 'cjswn'             
+MJSWS    = 0.01                PBSWGS   = 0.78                CJSWGS   = 'cjswgn'            
+MJSWGS   = 0.52                TPB      = 1.00E-03            TCJ      = 7.32E-04            
+TPBSW    = 1.90E-03            TCJSW    = 3.57E-04            TPBSWG   = 1.90E-03            
+TCJSWG   = 3.57E-04            XTIS     = 3                   DMCG     = 9.25e-008           
+DMCI     = 9.25e-008           DMDG     = 0                   DMCGT    = 0                   
+DWJ      = 0                   XGW      = 0                   XGL      = 0                   
+RSHG     = 0.1                 GBMIN    = 1e-012              RBPB     = 50                  
+RBPD     = 50                  RBPS     = 50                  RBDB     = 50                  
+RBSB     = 50                  NGCON    = 1                   
+SAREF    = 0.63E-6             SBREF    = 0.63E-6
+KVSAT    = 0.20                 WLOD     = 0.8E-6             TKU0     = 0.01
+KU0      = -7.36E-8            LLODKU0  = 1                   WLODKU0  = 1
+LKU0     = 4.027E-7            WKU0     = 8E-7                PKU0     = -2.0E-13
+KVTH0    = 3.5E-9              STK2     = 1.35E-9             STETA0   = 0
+LKVTH0   = -2.68E-11           WKVTH0   = 1.5E-6              PKVTH0   = 0
+LLODVTH  = 1                   WLODVTH  = 1                   LODK2    = 0.5
+LODETA0  = 1                    
+FNOIMOD  = 1                   NOIA     = 4.2926E+41          NOIB     = 1.612E+24
[...]
.subckt rnpolys n1 n2 l=length w=width scale=1 m=1
.param Rsh = r_rnpolys
.param dw = '0.0189u + dxw_rnpolys'  
.param pvc1 = 1.51E-06   pvc2 = 1.13E-12   ptc1 = 3.12E-03   ptc2 = -1.91E-06   
.param pt='temper'
.param tfac='1.0+ptc1*(pt-25.0)+ptc2*(pt-25.0)*(pt-25.0)'
r1 n1 n2 'rsh/m*l*scale/(w*scale-dw)*(1+pvc1*(abs(v(n2,n1))/l/scale)+pvc2*(v(n2,n1)/l/scale)*(v(n2,n1)/l/scale))*tfac'
.ends rnpolys

***********************************     N+POLY silicide resistor (W>=2.0um)     ***********************************
.subckt rnpolyl n1 n2 l=length w=width scale=1 m=1
.param Rsh = r_rnpolyl
.param dw = 0.0189u  
.param pvc1 = 3.04E-06   pvc2 = 3.35E-12   ptc1 = 2.56E-03   ptc2 = -4.21E-07
*.param pvc1 = 1.51E-06   pvc2 = 1.13E-12   ptc1 = 3.12E-03   ptc2 = -1.91E-06    
.param pt='temper'
.param tfac='1.0+ptc1*(pt-25.0)+ptc2*(pt-25.0)*(pt-25.0)'
r1 n1 n2 'rsh/m*l*scale/(w*scale-dw)*(1+pvc1*(abs(v(n2,n1))/l/scale)+pvc2*(v(n2,n1)/l/scale)*(v(n2,n1)/l/scale))*tfac'
.ends rnpolyl

***********************************     P+POLY silicide resistor (W<2.0um)     ***********************************
.subckt rppolys n1 n2 l=length w=width scale=1 m=1
.param Rsh = r_rppolys
.param dw = '0.0077u + dxw_rppolys'  
.param pvc1 = 1.82E-06   pvc2 = 1.23E-12   ptc1 = 3.08E-03   ptc2 = -1.39E-06   
.param pt='temper'
.param tfac='1.0+ptc1*(pt-25.0)+ptc2*(pt-25.0)*(pt-25.0)'
r1 n1 n2 'rsh/m*l*scale/(w*scale-dw)*(1+pvc1*(abs(v(n2,n1))/l/scale)+pvc2*(v(n2,n1)/l/scale)*(v(n2,n1)/l/scale))*tfac'
.ends rppolys

***********************************     P+POLY silicide resistor (W>=2.0um)     ***********************************
.subckt rppolyl n1 n2 l=length w=width scale=1 m=1
.param Rsh = r_rppolyl
.param dw = 0.0077u  
.param pvc1 = 2.32E-06   pvc2 = 5.71E-12   ptc1 = 2.74E-03   ptc2 = -1.41E-07
*.param pvc1 = 1.82E-06   pvc2 = 1.23E-12   ptc1 = 3.08E-03   ptc2 = -1.39E-06   
.param pt='temper'
.param tfac='1.0+ptc1*(pt-25.0)+ptc2*(pt-25.0)*(pt-25.0)'
r1 n1 n2 'rsh/m*l*scale/(w*scale-dw)*(1+pvc1*(abs(v(n2,n1))/l/scale)+pvc2*(v(n2,n1)/l/scale)*(v(n2,n1)/l/scale))*tfac'
.ends rppolyl

***********************************     N-Well under OD resistor     ***********************************
.subckt rnwod n1 n2 l=length w=width scale=1 m=1
.param rsh = r_rnwod
.param dw = 0.29u  
.param pvc1 = 1.24E-02   pvc2 = -2.98E-04   ptc1 = 2.83E-03   ptc2 = 1.04E-05   
.param pt='temper'
.param tfac='1.0+ptc1*(pt-25.0)+ptc2*(pt-25.0)*(pt-25.0)'
r1 n1 n2 'rsh/m*l*scale/(w*scale-dw)*(1+pvc1*(abs(v(n2,n1))/scale)+pvc2*(v(n2,n1)/scale)*(v(n2,n1)/scale))*tfac'
.ends rnwod

***********************************     N-well under STI resistor     ***********************************
.subckt rnwsti n1 n2 l=length w=width scale=1 m=1
.param rsh = r_rnwsti
.param dw = 0.41u  
.param pvc1 = 1.16E-02   pvc2 = -4.57E-04   ptc1 = 1.73E-03   ptc2 = 9.66E-06   
.param pt='temper'
.param tfac='1.0+ptc1*(pt-25.0)+ptc2*(pt-25.0)*(pt-25.0)'
r1 n1 n2 'rsh/m*l*scale/(w*scale-dw)*(1+pvc1*(abs(v(n2,n1))/scale)+pvc2*(v(n2,n1)/scale)*(v(n2,n1)/scale))*tfac'
.ends rnwsti

***********************************     Metal 1 with W/S=0.12/0.36     ***********************************
.subckt rm1l n1 n2 l=length w=width scale=1 m=1
.param Rsh = r_rm1l
.param dw = 0  
.param pvc1 = 0   pvc2 = 0   ptc1 = 2.92E-03   ptc2 = -1.22E-07   
.param pt='temper'
.param tfac='1.0+ptc1*(pt-25.0)+ptc2*(pt-25.0)*(pt-25.0)'
r1 n1 n2 'rsh/m*l*scale/(w*scale-dw)*(1+pvc1*(abs(v(n2,n1))/l/scale)+pvc2*(v(n2,n1)/l/scale)*(v(n2,n1)/l/scale))*tfac'
.ends rm1l

***********************************     Metal 1 with W/S=0.12/0.12     ***********************************
.subckt rm1s n1 n2 l=length w=width scale=1 m=1
.param Rsh = r_rm1s
.param dw = 0  
.param pvc1 = 0   pvc2 = 0   ptc1 = 2.92E-03   ptc2 = -1.22E-07   
.param pt='temper'
.param tfac='1.0+ptc1*(pt-25.0)+ptc2*(pt-25.0)*(pt-25.0)'
r1 n1 n2 'rsh/m*l*scale/(w*scale-dw)*(1+pvc1*(abs(v(n2,n1))/l/scale)+pvc2*(v(n2,n1)/l/scale)*(v(n2,n1)/l/scale))*tfac'
.ends rm1s

***********************************     Metal 1 with W/S=0.324/0.162     ***********************************
.subckt rm1w n1 n2 l=length w=width scale=1 m=1
.param Rsh = r_rm1w
.param dw = 0  
.param pvc1 = 0   pvc2 = 0   ptc1 = 2.92E-03   ptc2 = -1.22E-07   
.param pt='temper'
.param tfac='1.0+ptc1*(pt-25.0)+ptc2*(pt-25.0)*(pt-25.0)'
r1 n1 n2 'rsh/m*l*scale/(w*scale-dw)*(1+pvc1*(abs(v(n2,n1))/l/scale)+pvc2*(v(n2,n1)/l/scale)*(v(n2,n1)/l/scale))*tfac'
.ends rm1w

***********************************     Metal 2  with W/S=0.14/0.42     ***********************************
.subckt rm2l n1 n2 l=length w=width scale=1 m=1
.param Rsh = r_rm2l
.param dw = 0  
.param pvc1 = 0   pvc2 = 0   ptc1 = 3.077E-03   ptc2 = -1.14E-07   
.param pt='temper'
.param tfac='1.0+ptc1*(pt-25.0)+ptc2*(pt-25.0)*(pt-25.0)'
r1 n1 n2 'rsh/m*l*scale/(w*scale-dw)*(1+pvc1*(abs(v(n2,n1))/l/scale)+pvc2*(v(n2,n1)/l/scale)*(v(n2,n1)/l/scale))*tfac'
.ends rm2l

***********************************     Metal 2  with W/S=0.14/0.14     ***********************************
.subckt rm2s n1 n2 l=length w=width scale=1 m=1
.param Rsh = r_rm2s
.param dw = 0  
.param pvc1 = 0   pvc2 = 0   ptc1 = 3.077E-03   ptc2 = -1.14E-07   
.param pt='temper'
.param tfac='1.0+ptc1*(pt-25.0)+ptc2*(pt-25.0)*(pt-25.0)'
r1 n1 n2 'rsh/m*l*scale/(w*scale-dw)*(1+pvc1*(abs(v(n2,n1))/l/scale)+pvc2*(v(n2,n1)/l/scale)*(v(n2,n1)/l/scale))*tfac'
.ends rm2s

***********************************     Metal 2  with W/S=0.42/0.21     ***********************************
.subckt rm2w n1 n2 l=length w=width scale=1 m=1
.param Rsh = r_rm2w
.param dw = 0  
.param pvc1 = 0   pvc2 = 0   ptc1 = 3.077E-03   ptc2 = -1.14E-07   
.param pt='temper'
.param tfac='1.0+ptc1*(pt-25.0)+ptc2*(pt-25.0)*(pt-25.0)'
r1 n1 n2 'rsh/m*l*scale/(w*scale-dw)*(1+pvc1*(abs(v(n2,n1))/l/scale)+pvc2*(v(n2,n1)/l/scale)*(v(n2,n1)/l/scale))*tfac'
.ends rm2w

***********************************     Metal 3  with W/S=0.14/0.42     ***********************************
.subckt rm3l n1 n2 l=length w=width scale=1 m=1
.param Rsh = r_rm3l
.param dw = 0  
.param pvc1 = 0   pvc2 = 0   ptc1 = 3.077E-03   ptc2 = -1.14E-07   
.param pt='temper'
.param tfac='1.0+ptc1*(pt-25.0)+ptc2*(pt-25.0)*(pt-25.0)'
r1 n1 n2 'rsh/m*l*scale/(w*scale-dw)*(1+pvc1*(abs(v(n2,n1))/l/scale)+pvc2*(v(n2,n1)/l/scale)*(v(n2,n1)/l/scale))*tfac'
.ends rm3l

***********************************     Metal 3 with W/S=0.14/0.14     ***********************************
.subckt rm3s n1 n2 l=length w=width scale=1 m=1
.param Rsh = r_rm3s
.param dw = 0  
.param pvc1 = 0   pvc2 = 0   ptc1 = 3.077E-03   ptc2 = -1.14E-07   
.param pt='temper'
.param tfac='1.0+ptc1*(pt-25.0)+ptc2*(pt-25.0)*(pt-25.0)'
r1 n1 n2 'rsh/m*l*scale/(w*scale-dw)*(1+pvc1*(abs(v(n2,n1))/l/scale)+pvc2*(v(n2,n1)/l/scale)*(v(n2,n1)/l/scale))*tfac'
.ends rm3s

***********************************     Metal 3  with W/S=0.42/0.21     ***********************************
.subckt rm3w n1 n2 l=length w=width scale=1 m=1
.param Rsh = r_rm3w
.param dw = 0  
.param pvc1 = 0   pvc2 = 0   ptc1 = 3.077E-03   ptc2 = -1.14E-07   
.param pt='temper'
.param tfac='1.0+ptc1*(pt-25.0)+ptc2*(pt-25.0)*(pt-25.0)'
r1 n1 n2 'rsh/m*l*scale/(w*scale-dw)*(1+pvc1*(abs(v(n2,n1))/l/scale)+pvc2*(v(n2,n1)/l/scale)*(v(n2,n1)/l/scale))*tfac'
.ends rm3w

***********************************     Metal 4  with W/S=0.14/0.42     ***********************************
.subckt rm4l n1 n2 l=length w=width scale=1 m=1
.param Rsh = r_rm4l
.param dw = 0  
.param pvc1 = 0   pvc2 = 0   ptc1 = 3.077E-03   ptc2 = -1.14E-07   
.param pt='temper'
.param tfac='1.0+ptc1*(pt-25.0)+ptc2*(pt-25.0)*(pt-25.0)'
r1 n1 n2 'rsh/m*l*scale/(w*scale-dw)*(1+pvc1*(abs(v(n2,n1))/l/scale)+pvc2*(v(n2,n1)/l/scale)*(v(n2,n1)/l/scale))*tfac'
.ends rm4l

***********************************     Metal 4 with W/S=0.14/0.14     ***********************************
.subckt rm4s n1 n2 l=length w=width scale=1 m=1
.param Rsh = r_rm4s
.param dw = 0  
.param pvc1 = 0   pvc2 = 0   ptc1 = 3.077E-03   ptc2 = -1.14E-07   
.param pt='temper'
.param tfac='1.0+ptc1*(pt-25.0)+ptc2*(pt-25.0)*(pt-25.0)'
r1 n1 n2 'rsh/m*l*scale/(w*scale-dw)*(1+pvc1*(abs(v(n2,n1))/l/scale)+pvc2*(v(n2,n1)/l/scale)*(v(n2,n1)/l/scale))*tfac'
.ends rm4s

***********************************     Metal 4  with W/S=0.42/0.21     ***********************************
.subckt rm4w n1 n2 l=length w=width scale=1 m=1
.param Rsh = r_rm4w
.param dw = 0  
.param pvc1 = 0   pvc2 = 0   ptc1 = 3.077E-03   ptc2 = -1.14E-07   
.param pt='temper'
.param tfac='1.0+ptc1*(pt-25.0)+ptc2*(pt-25.0)*(pt-25.0)'
r1 n1 n2 'rsh/m*l*scale/(w*scale-dw)*(1+pvc1*(abs(v(n2,n1))/l/scale)+pvc2*(v(n2,n1)/l/scale)*(v(n2,n1)/l/scale))*tfac'
.ends rm4w

***********************************     Metal 5  with W/S=0.14/0.42     ***********************************
.subckt rm5l n1 n2 l=length w=width scale=1 m=1
.param Rsh = r_rm5l
.param dw = 0  
.param pvc1 = 0   pvc2 = 0   ptc1 = 3.077E-03   ptc2 = -1.14E-07   
.param pt='temper'
.param tfac='1.0+ptc1*(pt-25.0)+ptc2*(pt-25.0)*(pt-25.0)'
r1 n1 n2 'rsh/m*l*scale/(w*scale-dw)*(1+pvc1*(abs(v(n2,n1))/l/scale)+pvc2*(v(n2,n1)/l/scale)*(v(n2,n1)/l/scale))*tfac'
.ends rm5l

***********************************     Metal 5 with W/S=0.14/0.14     ***********************************
.subckt rm5s n1 n2 l=length w=width scale=1 m=1
.param Rsh = r_rm5s
.param dw = 0  
.param pvc1 = 0   pvc2 = 0   ptc1 = 3.077E-03   ptc2 = -1.14E-07   
.param pt='temper'
.param tfac='1.0+ptc1*(pt-25.0)+ptc2*(pt-25.0)*(pt-25.0)'
r1 n1 n2 'rsh/m*l*scale/(w*scale-dw)*(1+pvc1*(abs(v(n2,n1))/l/scale)+pvc2*(v(n2,n1)/l/scale)*(v(n2,n1)/l/scale))*tfac'
.ends rm5s

***********************************     Metal 5  with W/S=0.42/0.21     ***********************************
.subckt rm5w n1 n2 l=length w=width scale=1 m=1
.param Rsh = r_rm5w
.param dw = 0  
.param pvc1 = 0   pvc2 = 0   ptc1 = 3.077E-03   ptc2 = -1.14E-07   
.param pt='temper'
.param tfac='1.0+ptc1*(pt-25.0)+ptc2*(pt-25.0)*(pt-25.0)'
r1 n1 n2 'rsh/m*l*scale/(w*scale-dw)*(1+pvc1*(abs(v(n2,n1))/l/scale)+pvc2*(v(n2,n1)/l/scale)*(v(n2,n1)/l/scale))*tfac'
.ends rm5w

***********************************     Metal 6  with W/S=0.14/0.42     ***********************************
.subckt rm6l n1 n2 l=length w=width scale=1 m=1
.param Rsh = r_rm6l
.param dw = 0  
.param pvc1 = 0   pvc2 = 0   ptc1 = 3.077E-03   ptc2 = -1.14E-07   
.param pt='temper'
.param tfac='1.0+ptc1*(pt-25.0)+ptc2*(pt-25.0)*(pt-25.0)'
r1 n1 n2 'rsh/m*l*scale/(w*scale-dw)*(1+pvc1*(abs(v(n2,n1))/l/scale)+pvc2*(v(n2,n1)/l/scale)*(v(n2,n1)/l/scale))*tfac'
.ends rm6l

***********************************     Metal 6 with W/S=0.14/0.14     ***********************************
.subckt rm6s n1 n2 l=length w=width scale=1 m=1
.param Rsh = r_rm6s
.param dw = 0  
.param pvc1 = 0   pvc2 = 0   ptc1 = 3.077E-03   ptc2 = -1.14E-07   
.param pt='temper'
.param tfac='1.0+ptc1*(pt-25.0)+ptc2*(pt-25.0)*(pt-25.0)'
r1 n1 n2 'rsh/m*l*scale/(w*scale-dw)*(1+pvc1*(abs(v(n2,n1))/l/scale)+pvc2*(v(n2,n1)/l/scale)*(v(n2,n1)/l/scale))*tfac'
.ends rm6s

***********************************     Metal 6  with W/S=0.42/0.21     ***********************************
.subckt rm6w n1 n2 l=length w=width scale=1 m=1
.param Rsh = r_rm6w
.param dw = 0  
.param pvc1 = 0   pvc2 = 0   ptc1 = 3.077E-03   ptc2 = -1.14E-07   
.param pt='temper'
.param tfac='1.0+ptc1*(pt-25.0)+ptc2*(pt-25.0)*(pt-25.0)'
r1 n1 n2 'rsh/m*l*scale/(w*scale-dw)*(1+pvc1*(abs(v(n2,n1))/l/scale)+pvc2*(v(n2,n1)/l/scale)*(v(n2,n1)/l/scale))*tfac'
.ends rm6w

***********************************     Metal 7 with W/S=0.14/0.42     ***********************************
.subckt rm7l n1 n2 l=length w=width scale=1 m=1
.param Rsh = r_rm7l
.param dw = 0  
.param pvc1 = 0   pvc2 = 0   ptc1 = 3.077E-03   ptc2 = -1.14E-07   
.param pt='temper'
.param tfac='1.0+ptc1*(pt-25.0)+ptc2*(pt-25.0)*(pt-25.0)'
r1 n1 n2 'rsh/m*l*scale/(w*scale-dw)*(1+pvc1*(abs(v(n2,n1))/l/scale)+pvc2*(v(n2,n1)/l/scale)*(v(n2,n1)/l/scale))*tfac'
.ends rm7l

***********************************     Metal 7 with W/S=0.14/0.14     ***********************************
.subckt rm7s n1 n2 l=length w=width scale=1 m=1
.param Rsh = r_rm7s
.param dw = 0  
.param pvc1 = 0   pvc2 = 0   ptc1 = 3.077E-03   ptc2 = -1.14E-07   
.param pt='temper'
.param tfac='1.0+ptc1*(pt-25.0)+ptc2*(pt-25.0)*(pt-25.0)'
r1 n1 n2 'rsh/m*l*scale/(w*scale-dw)*(1+pvc1*(abs(v(n2,n1))/l/scale)+pvc2*(v(n2,n1)/l/scale)*(v(n2,n1)/l/scale))*tfac'
.ends rm7s

***********************************     Metal 7 with W/S=0.42/0.21     ***********************************
.subckt rm7w n1 n2 l=length w=width scale=1 m=1
.param Rsh = r_rm7w
.param dw = 0  
.param pvc1 = 0   pvc2 = 0   ptc1 = 3.077E-03   ptc2 = -1.14E-07   
.param pt='temper'
.param tfac='1.0+ptc1*(pt-25.0)+ptc2*(pt-25.0)*(pt-25.0)'
r1 n1 n2 'rsh/m*l*scale/(w*scale-dw)*(1+pvc1*(abs(v(n2,n1))/l/scale)+pvc2*(v(n2,n1)/l/scale)*(v(n2,n1)/l/scale))*tfac'
.ends rm7w

***********************************     Metal 8  with W/S=0.42/0.63     ***********************************
.subckt rm8l n1 n2 l=length w=width scale=1 m=1
.param Rsh = r_rm8l
.param dw = 0  
.param pvc1 = 0   pvc2 = 0   ptc1 = 3.506E-03   ptc2 = -3.60E-07   
.param pt='temper'
.param tfac='1.0+ptc1*(pt-25.0)+ptc2*(pt-25.0)*(pt-25.0)'
r1 n1 n2 'rsh/m*l*scale/(w*scale-dw)*(1+pvc1*(abs(v(n2,n1))/l/scale)+pvc2*(v(n2,n1)/l/scale)*(v(n2,n1)/l/scale))*tfac'
.ends rm8l

***********************************     Metal 8  with W/S=0.42/0.42     ***********************************
.subckt rm8s n1 n2 l=length w=width scale=1 m=1
.param Rsh = r_rm8s
.param dw = 0  
.param pvc1 = 0   pvc2 = 0   ptc1 = 3.506E-03   ptc2 = -3.60E-07   
.param pt='temper'
.param tfac='1.0+ptc1*(pt-25.0)+ptc2*(pt-25.0)*(pt-25.0)'
r1 n1 n2 'rsh/m*l*scale/(w*scale-dw)*(1+pvc1*(abs(v(n2,n1))/l/scale)+pvc2*(v(n2,n1)/l/scale)*(v(n2,n1)/l/scale))*tfac'
.ends rm8s

***********************************     Metal 8  with W/S=0.42/1.26     ***********************************
.subckt rm8w n1 n2 l=length w=width scale=1 m=1
.param Rsh = r_rm8w
.param dw = 0  
.param pvc1 = 0   pvc2 = 0   ptc1 = 3.506E-03   ptc2 = -3.60E-07   
.param pt='temper'
.param tfac='1.0+ptc1*(pt-25.0)+ptc2*(pt-25.0)*(pt-25.0)'
r1 n1 n2 'rsh/m*l*scale/(w*scale-dw)*(1+pvc1*(abs(v(n2,n1))/l/scale)+pvc2*(v(n2,n1)/l/scale)*(v(n2,n1)/l/scale))*tfac'
.ends rm8w
***********************************     Metal 9  with W/S=0.42/0.63     ***********************************
.subckt rm9l n1 n2 l=length w=width scale=1 m=1
.param Rsh = r_rm9l
.param dw = 0  
.param pvc1 = 0   pvc2 = 0   ptc1 = 3.506E-03   ptc2 = -3.60E-07   
.param pt='temper'
.param tfac='1.0+ptc1*(pt-25.0)+ptc2*(pt-25.0)*(pt-25.0)'
r1 n1 n2 'rsh/m*l*scale/(w*scale-dw)*(1+pvc1*(abs(v(n2,n1))/l/scale)+pvc2*(v(n2,n1)/l/scale)*(v(n2,n1)/l/scale))*tfac'
.ends rm9l

***********************************     Metal 9  with W/S=0.42/0.42     ***********************************
.subckt rm9s n1 n2 l=length w=width scale=1 m=1
.param Rsh = r_rm9s
.param dw = 0  
.param pvc1 = 0   pvc2 = 0   ptc1 = 3.506E-03   ptc2 = -3.60E-07   
.param pt='temper'
.param tfac='1.0+ptc1*(pt-25.0)+ptc2*(pt-25.0)*(pt-25.0)'
r1 n1 n2 'rsh/m*l*scale/(w*scale-dw)*(1+pvc1*(abs(v(n2,n1))/l/scale)+pvc2*(v(n2,n1)/l/scale)*(v(n2,n1)/l/scale))*tfac'
.ends rm9s

***********************************     Metal 9  with W/S=0.42/1.26     ***********************************
.subckt rm9w n1 n2 l=length w=width scale=1 m=1
.param Rsh = r_rm9w
.param dw = 0  
.param pvc1 = 0   pvc2 = 0   ptc1 = 3.506E-03   ptc2 = -3.60E-07   
.param pt='temper'
.param tfac='1.0+ptc1*(pt-25.0)+ptc2*(pt-25.0)*(pt-25.0)'
r1 n1 n2 'rsh/m*l*scale/(w*scale-dw)*(1+pvc1*(abs(v(n2,n1))/l/scale)+pvc2*(v(n2,n1)/l/scale)*(v(n2,n1)/l/scale))*tfac'
.ends rm9w

***********************************     Metal 10  with W/S=3/4.5     ***********************************
.subckt rm10l n1 n2 l=length w=width scale=1 m=1
.param Rsh = r_rm10l
.param dw = 0  
.param pvc1 = 0   pvc2 = 0   ptc1 = 3.89E-03   ptc2 = -1.50E-07   
.param pt='temper'
.param tfac='1.0+ptc1*(pt-25.0)+ptc2*(pt-25.0)*(pt-25.0)'
r1 n1 n2 'rsh/m*l*scale/(w*scale-dw)*(1+pvc1*(abs(v(n2,n1))/l/scale)+pvc2*(v(n2,n1)/l/scale)*(v(n2,n1)/l/scale))*tfac'
.ends rm10l

***********************************     Metal 10  with W/S=3/2     ***********************************
.subckt rm10s n1 n2 l=length w=width scale=1 m=1
.param Rsh = r_rm10s
.param dw = 0  
.param pvc1 = 0   pvc2 = 0   ptc1 = 3.89E-03   ptc2 = -1.50E-07   
.param pt='temper'
.param tfac='1.0+ptc1*(pt-25.0)+ptc2*(pt-25.0)*(pt-25.0)'
r1 n1 n2 'rsh/m*l*scale/(w*scale-dw)*(1+pvc1*(abs(v(n2,n1))/l/scale)+pvc2*(v(n2,n1)/l/scale)*(v(n2,n1)/l/scale))*tfac'
.ends rm10s

***********************************     Metal 10  with W/S=3/1.5     ***********************************
.subckt rm10w n1 n2 l=length w=width scale=1 m=1
.param Rsh = r_rm10w
.param dw = 0  
.param pvc1 = 0   pvc2 = 0   ptc1 = 3.89E-03   ptc2 = -1.50E-07   
.param pt='temper'
.param tfac='1.0+ptc1*(pt-25.0)+ptc2*(pt-25.0)*(pt-25.0)'
r1 n1 n2 'rsh/m*l*scale/(w*scale-dw)*(1+pvc1*(abs(v(n2,n1))/l/scale)+pvc2*(v(n2,n1)/l/scale)*(v(n2,n1)/l/scale))*tfac'
.ends rm10w

***********************************     Metal 2 to 7 with W/S=0.14/0.42     ***********************************
.subckt rm2_7l n1 n2 l=length w=width scale=1 m=1
.param Rsh = r_rm2_7l
.param dw = 0  
.param pvc1 = 0   pvc2 = 0   ptc1 = 3.077E-03   ptc2 = -1.14E-07   
.param pt='temper'
.param tfac='1.0+ptc1*(pt-25.0)+ptc2*(pt-25.0)*(pt-25.0)'
r1 n1 n2 'rsh/m*l*scale/(w*scale-dw)*(1+pvc1*(abs(v(n2,n1))/l/scale)+pvc2*(v(n2,n1)/l/scale)*(v(n2,n1)/l/scale))*tfac'
.ends rm2_7l

***********************************     Metal 2 to 7 with W/S=0.14/0.14     ***********************************
.subckt rm2_7s n1 n2 l=length w=width scale=1 m=1
.param Rsh = r_rm2_7s
.param dw = 0  
.param pvc1 = 0   pvc2 = 0   ptc1 = 3.077E-03   ptc2 = -1.14E-07   
.param pt='temper'
.param tfac='1.0+ptc1*(pt-25.0)+ptc2*(pt-25.0)*(pt-25.0)'
r1 n1 n2 'rsh/m*l*scale/(w*scale-dw)*(1+pvc1*(abs(v(n2,n1))/l/scale)+pvc2*(v(n2,n1)/l/scale)*(v(n2,n1)/l/scale))*tfac'
.ends rm2_7s

***********************************     Metal 2 to 7 with W/S=0.42/0.21     ***********************************
.subckt rm2_7w n1 n2 l=length w=width scale=1 m=1
.param Rsh = r_rm2_7w
.param dw = 0  
.param pvc1 = 0   pvc2 = 0   ptc1 = 3.077E-03   ptc2 = -1.14E-07   
.param pt='temper'
.param tfac='1.0+ptc1*(pt-25.0)+ptc2*(pt-25.0)*(pt-25.0)'
r1 n1 n2 'rsh/m*l*scale/(w*scale-dw)*(1+pvc1*(abs(v(n2,n1))/l/scale)+pvc2*(v(n2,n1)/l/scale)*(v(n2,n1)/l/scale))*tfac'
.ends rm2_7w

***********************************     Metal 8 to 9 with W/S=0.42/0.63     ***********************************
.subckt rm8_9l n1 n2 l=length w=width scale=1 m=1
.param Rsh = r_rm8_9l
.param dw = 0  
.param pvc1 = 0   pvc2 = 0   ptc1 = 3.506E-03   ptc2 = -3.60E-07   
.param pt='temper'
.param tfac='1.0+ptc1*(pt-25.0)+ptc2*(pt-25.0)*(pt-25.0)'
r1 n1 n2 'rsh/m*l*scale/(w*scale-dw)*(1+pvc1*(abs(v(n2,n1))/l/scale)+pvc2*(v(n2,n1)/l/scale)*(v(n2,n1)/l/scale))*tfac'
.ends rm8_9l

***********************************     Metal 8 to 9  with W/S=0.42/0.42     ***********************************
.subckt rm8_9s n1 n2 l=length w=width scale=1 m=1
.param Rsh = r_rm8_9s
.param dw = 0  
.param pvc1 = 0   pvc2 = 0   ptc1 = 3.506E-03   ptc2 = -3.60E-07   
.param pt='temper'
.param tfac='1.0+ptc1*(pt-25.0)+ptc2*(pt-25.0)*(pt-25.0)'
r1 n1 n2 'rsh/m*l*scale/(w*scale-dw)*(1+pvc1*(abs(v(n2,n1))/l/scale)+pvc2*(v(n2,n1)/l/scale)*(v(n2,n1)/l/scale))*tfac'
.ends rm8_9s

***********************************     Metal 8 to 9  with W/S=0.42/1.26     ***********************************
.subckt rm8_9w n1 n2 l=length w=width scale=1 m=1
.param Rsh = r_rm8_9w
.param dw = 0  
.param pvc1 = 0   pvc2 = 0   ptc1 = 3.506E-03   ptc2 = -3.60E-07   
.param pt='temper'
.param tfac='1.0+ptc1*(pt-25.0)+ptc2*(pt-25.0)*(pt-25.0)'
r1 n1 n2 'rsh/m*l*scale/(w*scale-dw)*(1+pvc1*(abs(v(n2,n1))/l/scale)+pvc2*(v(n2,n1)/l/scale)*(v(n2,n1)/l/scale))*tfac'
.ends rm8_9w
*
.ENDL RES

